REMARK  Name = 
REMARK  6 active torsions:
REMARK  status: ('A' for Active; 'I' for Inactive)
REMARK    1  A    between atoms: C_2  and  C_3
REMARK    2  A    between atoms: C_5  and  O_6
REMARK    3  A    between atoms: O_6  and  C_7
REMARK    4  A    between atoms: C_13  and  O_14
REMARK    5  A    between atoms: O_14  and  C_15
REMARK    6  A    between atoms: C_17  and  C_18
REMARK                            x       y       z     vdW  Elec       q    Type
REMARK                         _______ _______ _______ _____ _____    ______ ____
ROOT
ATOM      1  C   UNL     1       1.755   1.953   0.000  0.00  0.00    +0.000 C 
ATOM      2  C   UNL     1       0.972   3.233   0.000  0.00  0.00    +0.000 C 
ATOM      3  N   UNL     1       1.689   4.551   0.000  0.00  0.00    +0.000 NA
ATOM      4  C   UNL     1      -0.527   3.195   0.000  0.00  0.00    +0.000 C 
ATOM      5  C   UNL     1      -1.244   1.877   0.000  0.00  0.00    +0.000 C 
ATOM      6  N   UNL     1      -2.743   1.839   0.000  0.00  0.00    +0.000 NA
ATOM      7  C   UNL     1      -0.461   0.597   0.000  0.00  0.00    +0.000 C 
ATOM      8  C   UNL     1       1.039   0.636   0.000  0.00  0.00    +0.000 C 
ATOM      9  O   UNL     1       1.822  -0.644   0.000  0.00  0.00    +0.000 OA
ENDROOT
BRANCH   1  10
ATOM     10  O   UNL     1       3.255   1.992   0.000  0.00  0.00    +0.000 OA
BRANCH  10  13
ATOM     11  C   UNL     1       4.104  -1.885   0.000  0.00  0.00    +0.000 C 
ATOM     12  O   UNL     1       3.321  -0.606   0.000  0.00  0.00    +0.000 OA
ATOM     13  C   UNL     1       4.038   0.712   0.000  0.00  0.00    +0.000 C 
ATOM     14  C   UNL     1       5.537   0.751   0.000  0.00  0.00    +0.000 C 
ATOM     15  N   UNL     1       6.254   2.068   0.000  0.00  0.00    +0.000 NA
ATOM     16  C   UNL     1       6.320  -0.529   0.000  0.00  0.00    +0.000 C 
ATOM     17  C   UNL     1       5.604  -1.847   0.000  0.00  0.00    +0.000 C 
ATOM     18  O   UNL     1       6.387  -3.126   0.000  0.00  0.00    +0.000 OA
BRANCH  11  20
ATOM     19  N   UNL     1       1.888  -3.241   0.000  0.00  0.00    +0.000 NA
ATOM     20  C   UNL     1       3.388  -3.203   0.000  0.00  0.00    +0.000 C 
ENDBRANCH  11  20
ENDBRANCH  10  13
ENDBRANCH   1  10
BRANCH   7  21
ATOM     21  O   UNL     1      -1.177  -0.720   0.000  0.00  0.00    +0.000 OA
BRANCH  21  22
ATOM     22  C   UNL     1      -2.677  -0.759   0.000  0.00  0.00    +0.000 C 
ATOM     23  O   UNL     1      -3.460   0.521   0.000  0.00  0.00    +0.000 OA
ATOM     24  C   UNL     1      -4.959   0.482   0.000  0.00  0.00    +0.000 C 
ATOM     25  C   UNL     1      -5.676  -0.835   0.000  0.00  0.00    +0.000 C 
ATOM     26  O   UNL     1      -7.175  -0.874   0.000  0.00  0.00    +0.000 OA
ATOM     27  C   UNL     1      -4.893  -2.115   0.000  0.00  0.00    +0.000 C 
ATOM     28  N   UNL     1      -5.609  -3.433   0.000  0.00  0.00    +0.000 NA
ATOM     29  C   UNL     1      -3.393  -2.076   0.000  0.00  0.00    +0.000 C 
ATOM     30  O   UNL     1      -2.610  -3.356   0.000  0.00  0.00    +0.000 OA
BRANCH  24  31
ATOM     31  C   UNL     1      -5.742   1.762   0.000  0.00  0.00    +0.000 C 
ATOM     32  O   UNL     1      -5.026   3.080   0.000  0.00  0.00    +0.000 OA
ENDBRANCH  24  31
ENDBRANCH  21  22
ENDBRANCH   7  21
TORSDOF 6
