REMARK  Name = 
REMARK  18 active torsions:
REMARK  status: ('A' for Active; 'I' for Inactive)
REMARK    1  A    between atoms: C_2  and  C_4
REMARK    2  A    between atoms: C_6  and  C_7
REMARK    3  A    between atoms: C_7  and  N_8
REMARK    4  A    between atoms: N_12  and  C_13
REMARK    5  A    between atoms: C_13  and  C_14
REMARK    6  A    between atoms: C_13  and  C_46
REMARK    7  A    between atoms: N_16  and  C_17
REMARK    8  A    between atoms: C_17  and  C_18
REMARK    9  A    between atoms: C_17  and  C_25
REMARK   10  A    between atoms: C_18  and  C_19
REMARK   11  A    between atoms: C_25  and  C_26
REMARK   12  A    between atoms: C_26  and  C_28
REMARK   13  A    between atoms: C_28  and  C_29
REMARK   14  A    between atoms: C_28  and  N_36
REMARK   15  A    between atoms: C_29  and  C_30
REMARK   16  A    between atoms: C_37  and  O_39
REMARK   17  A    between atoms: O_39  and  C_40
REMARK   18  A    between atoms: C_40  and  C_41
REMARK                            x       y       z     vdW  Elec       q    Type
REMARK                         _______ _______ _______ _____ _____    ______ ____
ROOT
ATOM      1  C   UNL     1      -1.423  -1.880   0.557  0.00  0.00    +0.000 C 
ENDROOT
BRANCH   1   4
ATOM      2  C   UNL     1       1.017  -1.146   0.100  0.00  0.00    +0.000 C 
ATOM      3  O   UNL     1       0.546  -0.047  -0.151  0.00  0.00    +0.000 OA
ATOM      4  N   UNL     1       0.103  -2.124   0.465  0.00  0.00    +0.000 NA
BRANCH   2   5
ATOM      5  C   UNL     1       2.572  -1.430   0.012  0.00  0.00    +0.000 C 
BRANCH   5  10
ATOM      6  N   UNL     1       4.802   1.232  -1.627  0.00  0.00    +0.000 N 
ATOM      7  C   UNL     1       4.139   2.488  -1.326  0.00  0.00    +0.000 C 
ATOM      8  C   UNL     1       4.215   0.012  -1.155  0.00  0.00    +0.000 C 
ATOM      9  O   UNL     1       4.831  -1.046  -1.439  0.00  0.00    +0.000 OA
ATOM     10  N   UNL     1       2.997   0.023  -0.402  0.00  0.00    +0.000 NA
BRANCH   6  11
ATOM     11  C   UNL     1       6.030   1.225  -2.388  0.00  0.00    +0.000 C 
BRANCH  11  14
ATOM     12  C   UNL     1       8.536   2.313   0.085  0.00  0.00    +0.000 A 
ATOM     13  N   UNL     1       7.579   2.340  -0.812  0.00  0.00    +0.000 NA
ATOM     14  C   UNL     1       7.140   1.228  -1.344  0.00  0.00    +0.000 A 
ATOM     15  C   UNL     1       7.734   0.065  -0.910  0.00  0.00    +0.000 A 
ATOM     16  S   UNL     1       8.869   0.643   0.219  0.00  0.00    +0.000 S 
BRANCH  12  18
ATOM     17  C   UNL     1      10.614   3.620   0.312  0.00  0.00    +0.000 C 
ATOM     18  C   UNL     1       9.186   3.468   0.821  0.00  0.00    +0.000 C 
ATOM     19  C   UNL     1       8.452   4.714   0.451  0.00  0.00    +0.000 C 
ENDBRANCH  12  18
ENDBRANCH  11  14
ENDBRANCH   6  11
ENDBRANCH   5  10
BRANCH   5  20
ATOM     20  C   UNL     1       2.884  -1.104   1.614  0.00  0.00    +0.000 C 
ATOM     21  C   UNL     1       4.371  -0.743   1.507  0.00  0.00    +0.000 C 
ATOM     22  C   UNL     1       2.894  -2.530   2.199  0.00  0.00    +0.000 C 
ENDBRANCH   5  20
ENDBRANCH   2   5
ENDBRANCH   1   4
BRANCH   1  23
ATOM     23  C   UNL     1      -1.648  -2.369   2.086  0.00  0.00    +0.000 C 
BRANCH  23  24
ATOM     24  C   UNL     1      -1.210  -3.821   1.961  0.00  0.00    +0.000 A 
ATOM     25  C   UNL     1      -2.133  -4.802   1.620  0.00  0.00    +0.000 A 
ATOM     26  C   UNL     1      -1.854  -6.136   1.479  0.00  0.00    +0.000 A 
ATOM     27  C   UNL     1      -0.557  -6.537   1.690  0.00  0.00    +0.000 A 
ATOM     28  C   UNL     1       0.372  -5.582   2.029  0.00  0.00    +0.000 A 
ATOM     29  C   UNL     1       0.052  -4.264   2.159  0.00  0.00    +0.000 A 
ENDBRANCH  23  24
ENDBRANCH   1  23
BRANCH   1  30
ATOM     30  C   UNL     1      -1.343  -0.298   0.620  0.00  0.00    +0.000 C 
BRANCH  30  31
ATOM     31  C   UNL     1      -2.742   0.450   0.745  0.00  0.00    +0.000 C 
ATOM     32  O   UNL     1      -3.105  -0.199   2.092  0.00  0.00    +0.000 OA
BRANCH  31  33
ATOM     33  C   UNL     1      -3.727  -0.663  -0.166  0.00  0.00    +0.000 C 
BRANCH  33  34
ATOM     34  N   UNL     1      -5.010  -0.202   0.563  0.00  0.00    +0.000 NA
ATOM     35  C   UNL     1      -5.468   1.107   0.456  0.00  0.00    +0.000 C 
ATOM     36  O   UNL     1      -4.793   1.897  -0.271  0.00  0.00    +0.000 OA
BRANCH  35  37
ATOM     37  O   UNL     1      -6.598   1.611   1.075  0.00  0.00    +0.000 OA
BRANCH  37  38
ATOM     38  C   UNL     1      -6.940   2.961   0.861  0.00  0.00    +0.000 C 
BRANCH  38  39
ATOM     39  C   UNL     1      -5.846   3.879   1.300  0.00  0.00    +0.000 A 
ATOM     40  C   UNL     1      -5.855   5.240   1.144  0.00  0.00    +0.000 A 
ATOM     41  N   UNL     1      -4.838   5.905   1.571  0.00  0.00    +0.000 NA
ATOM     42  C   UNL     1      -3.825   5.269   2.142  0.00  0.00    +0.000 A 
ATOM     43  S   UNL     1      -4.342   3.643   2.069  0.00  0.00    +0.000 S 
ENDBRANCH  38  39
ENDBRANCH  37  38
ENDBRANCH  35  37
ENDBRANCH  33  34
BRANCH  33  44
ATOM     44  C   UNL     1      -3.893   0.290  -1.454  0.00  0.00    +0.000 C 
BRANCH  44  45
ATOM     45  C   UNL     1      -4.731  -0.587  -2.304  0.00  0.00    +0.000 A 
ATOM     46  C   UNL     1      -6.112  -0.587  -2.285  0.00  0.00    +0.000 A 
ATOM     47  C   UNL     1      -6.833  -1.441  -3.110  0.00  0.00    +0.000 A 
ATOM     48  C   UNL     1      -6.184  -2.301  -3.962  0.00  0.00    +0.000 A 
ATOM     49  C   UNL     1      -4.802  -2.319  -4.001  0.00  0.00    +0.000 A 
ATOM     50  C   UNL     1      -4.124  -1.465  -3.174  0.00  0.00    +0.000 A 
ENDBRANCH  44  45
ENDBRANCH  33  44
ENDBRANCH  31  33
ENDBRANCH  30  31
ENDBRANCH   1  30
TORSDOF 18
