REMARK  Name = 
REMARK  12 active torsions:
REMARK  status: ('A' for Active; 'I' for Inactive)
REMARK    1  A    between atoms: C_2  and  C_4
REMARK    2  A    between atoms: C_4  and  N_5
REMARK    3  A    between atoms: N_5  and  C_6
REMARK    4  A    between atoms: N_5  and  S_29
REMARK    5  A    between atoms: C_6  and  C_7
REMARK    6  A    between atoms: C_7  and  C_9
REMARK    7  A    between atoms: C_9  and  C_10
REMARK    8  A    between atoms: C_9  and  N_17
REMARK    9  A    between atoms: C_10  and  C_11
REMARK   10  A    between atoms: C_18  and  O_20
REMARK   11  A    between atoms: O_20  and  C_21
REMARK   12  A    between atoms: S_29  and  C_32
REMARK                            x       y       z     vdW  Elec       q    Type
REMARK                         _______ _______ _______ _____ _____    ______ ____
ROOT
ATOM      1  C   UNL     1       0.415  -0.880   0.087  0.00  0.00    +0.000 C 
ENDROOT
BRANCH   1   2
ATOM      2  N   UNL     1       1.492   0.062   0.775  0.00  0.00    +0.000 NA
ATOM      3  C   UNL     1       2.238   0.757  -0.248  0.00  0.00    +0.000 C 
ATOM      4  O   UNL     1       2.023   0.600  -1.478  0.00  0.00    +0.000 OA
BRANCH   3   5
ATOM      5  O   UNL     1       3.244   1.641   0.191  0.00  0.00    +0.000 OA
BRANCH   5   6
ATOM      6  C   UNL     1       3.951   2.303  -0.998  0.00  0.00    +0.000 C 
ATOM      7  C   UNL     1       4.979   3.190  -0.083  0.00  0.00    +0.000 C 
ATOM      8  O   UNL     1       5.614   3.426  -1.276  0.00  0.00    +0.000 OA
ATOM      9  C   UNL     1       6.434   2.143  -1.410  0.00  0.00    +0.000 C 
ATOM     10  O   UNL     1       6.799   2.034   0.077  0.00  0.00    +0.000 OA
ATOM     11  C   UNL     1       6.929   0.648   0.144  0.00  0.00    +0.000 C 
ATOM     12  C   UNL     1       5.403   0.540   0.135  0.00  0.00    +0.000 C 
ATOM     13  C   UNL     1       5.087   1.092  -1.315  0.00  0.00    +0.000 C 
ENDBRANCH   5   6
ENDBRANCH   3   5
ENDBRANCH   1   2
BRANCH   1  14
ATOM     14  C   UNL     1       0.077  -1.741   1.531  0.00  0.00    +0.000 C 
ATOM     15  O   UNL     1      -0.992  -2.603   0.844  0.00  0.00    +0.000 OA
BRANCH  14  16
ATOM     16  C   UNL     1      -0.994  -0.643   2.109  0.00  0.00    +0.000 C 
BRANCH  16  17
ATOM     17  N   UNL     1      -1.703  -0.042   1.096  0.00  0.00    +0.000 NA
BRANCH  17  18
ATOM     18  S   UNL     1      -3.146  -0.769   0.560  0.00  0.00    +0.000 S 
ATOM     19  O   UNL     1      -3.008  -1.449  -0.775  0.00  0.00    +0.000 OA
ATOM     20  O   UNL     1      -3.640  -1.771   1.574  0.00  0.00    +0.000 OA
BRANCH  18  21
ATOM     21  C   UNL     1      -4.444   0.413   0.363  0.00  0.00    +0.000 A 
ATOM     22  C   UNL     1      -5.301   0.729   1.401  0.00  0.00    +0.000 A 
ATOM     23  C   UNL     1      -6.317   1.662   1.227  0.00  0.00    +0.000 A 
ATOM     24  C   UNL     1      -6.484   2.292   0.002  0.00  0.00    +0.000 A 
ATOM     25  N   UNL     1      -7.528   3.251  -0.181  0.00  0.00    +0.000 NA
ATOM     26  C   UNL     1      -5.609   1.953  -1.017  0.00  0.00    +0.000 A 
ATOM     27  C   UNL     1      -4.601   1.028  -0.847  0.00  0.00    +0.000 A 
ENDBRANCH  18  21
ENDBRANCH  17  18
BRANCH  17  28
ATOM     28  C   UNL     1      -1.123   0.924   0.260  0.00  0.00    +0.000 C 
BRANCH  28  30
ATOM     29  C   UNL     1      -0.962   3.343  -0.395  0.00  0.00    +0.000 C 
ATOM     30  C   UNL     1      -1.549   2.317   0.463  0.00  0.00    +0.000 C 
ATOM     31  C   UNL     1      -2.073   2.689   1.774  0.00  0.00    +0.000 C 
ENDBRANCH  28  30
ENDBRANCH  17  28
ENDBRANCH  16  17
ENDBRANCH  14  16
ENDBRANCH   1  14
BRANCH   1  32
ATOM     32  C   UNL     1       1.574  -1.881  -0.443  0.00  0.00    +0.000 C 
BRANCH  32  33
ATOM     33  C   UNL     1       1.013  -3.228  -0.613  0.00  0.00    +0.000 A 
ATOM     34  C   UNL     1       0.379  -3.664  -1.728  0.00  0.00    +0.000 A 
ATOM     35  C   UNL     1      -0.100  -4.969  -1.818  0.00  0.00    +0.000 A 
ATOM     36  C   UNL     1       0.063  -5.843  -0.771  0.00  0.00    +0.000 A 
ATOM     37  C   UNL     1       0.696  -5.425   0.358  0.00  0.00    +0.000 A 
ATOM     38  C   UNL     1       1.161  -4.133   0.425  0.00  0.00    +0.000 A 
ENDBRANCH  32  33
ENDBRANCH   1  32
TORSDOF 12
