REMARK  Name = 
REMARK  1 active torsions:
REMARK  status: ('A' for Active; 'I' for Inactive)
REMARK    1  A    between atoms: C_2  and  P_4
REMARK                            x       y       z     vdW  Elec       q    Type
REMARK                         _______ _______ _______ _____ _____    ______ ____
ROOT
ATOM      1  P   UNL     1       0.705  -0.121   0.017  0.00  0.00    +0.000 P 
ATOM      2  O   UNL     1       1.180  -0.718   1.313  0.00  0.00    +0.000 OA
ATOM      3  O   UNL     1       1.585   1.283  -0.266  0.00  0.00    +0.000 OA
ATOM      4  O   UNL     1       0.984  -1.220  -1.253  0.00  0.00    +0.000 OA
ENDROOT
BRANCH   1   6
ATOM      5  O   UNL     1      -1.726  -0.426   0.929  0.00  0.00    +0.000 OA
ATOM      6  C   UNL     1      -1.050   0.175   0.063  0.00  0.00    +0.000 C 
ATOM      7  O   UNL     1      -1.678   1.026  -0.803  0.00  0.00    +0.000 OA
ENDBRANCH   1   6
TORSDOF 1
