REMARK  Name = 
REMARK  3 active torsions:
REMARK  status: ('A' for Active; 'I' for Inactive)
REMARK    1  A    between atoms: N_6  and  C1*_7
REMARK    2  A    between atoms: C4*_11  and  C5*_12
REMARK    3  A    between atoms: C_16  and  C_17
REMARK                            x       y       z     vdW  Elec       q    Type
REMARK                         _______ _______ _______ _____ _____    ______ ____
ROOT
ATOM      1  O   UNL     1       3.925  -1.169  -0.229  0.00  0.00    +0.000 OA
ATOM      2  C   UNL     1       2.666  -1.139  -0.149  0.00  0.00    +0.000 A 
ATOM      3  N   UNL     1       1.903  -2.238  -0.234  0.00  0.00    +0.000 NA
ATOM      4  C   UNL     1       0.546  -2.229  -0.150  0.00  0.00    +0.000 A 
ATOM      5  O   UNL     1      -0.078  -3.291  -0.239  0.00  0.00    +0.000 OA
ATOM      6  N   UNL     1      -0.030  -1.061   0.024  0.00  0.00    +0.000 N 
ATOM      7  C   UNL     1       0.641   0.034   0.114  0.00  0.00    +0.000 A 
ATOM      8  C   UNL     1       2.000   0.049   0.034  0.00  0.00    +0.000 A 
ENDROOT
BRANCH   6   9
ATOM      9  C1* UNL     1      -1.620  -1.030   0.124  0.00  0.00    +0.000 C 
ATOM     10  C2* UNL     1      -1.579  -0.341   1.642  0.00  0.00    +0.000 C 
ATOM     11  C3* UNL     1      -2.535   0.956   1.386  0.00  0.00    +0.000 C 
ATOM     12  O3* UNL     1      -3.655   0.414   2.300  0.00  0.00    +0.000 OA
ATOM     13  C4* UNL     1      -3.257   0.265  -0.035  0.00  0.00    +0.000 C 
ATOM     14  O4* UNL     1      -1.833   0.319  -0.606  0.00  0.00    +0.000 OA
BRANCH  13  15
ATOM     15  C5* UNL     1      -3.630   1.764  -0.678  0.00  0.00    +0.000 C 
ATOM     16  O5* UNL     1      -4.936   1.988  -0.297  0.00  0.00    +0.000 OA
ENDBRANCH  13  15
ENDBRANCH   6   9
BRANCH   8  17
ATOM     17  C   UNL     1       2.700   1.352   0.147  0.00  0.00    +0.000 C 
ATOM     18  F   UNL     1       3.433   1.589  -1.025  0.00  0.00    +0.000 F 
ATOM     19  F   UNL     1       1.795   2.388   0.271  0.00  0.00    +0.000 F 
ATOM     20  F   UNL     1       3.546   1.380   1.218  0.00  0.00    +0.000 F 
ENDBRANCH   8  17
TORSDOF 3
