REMARK  Name = 
REMARK  6 active torsions:
REMARK  status: ('A' for Active; 'I' for Inactive)
REMARK    1  A    between atoms: C_2  and  C_3
REMARK    2  A    between atoms: C_2  and  C_20
REMARK    3  A    between atoms: C_3  and  C_4
REMARK    4  A    between atoms: C_4  and  C_5
REMARK    5  A    between atoms: C_5  and  N_6
REMARK    6  A    between atoms: C_9  and  C_11
REMARK                            x       y       z     vdW  Elec       q    Type
REMARK                         _______ _______ _______ _____ _____    ______ ____
ROOT
ATOM      1  N   UNL     1      -0.147  -1.256  -0.285  0.00  0.00    +0.000 NA
ATOM      2  C   UNL     1      -1.001  -1.588   0.786  0.00  0.00    +0.000 C 
ATOM      3  C   UNL     1      -2.457  -1.261   0.531  0.00  0.00    +0.000 C 
ATOM      4  C   UNL     1      -2.550   0.180   0.136  0.00  0.00    +0.000 C 
ATOM      5  O   UNL     1      -1.847   0.928   1.075  0.00  0.00    +0.000 OA
ATOM      6  C   UNL     1      -1.790   0.318  -1.181  0.00  0.00    +0.000 C 
ATOM      7  C   UNL     1      -0.350   0.037  -0.861  0.00  0.00    +0.000 C 
ENDROOT
BRANCH   4   8
ATOM      8  C   UNL     1      -3.958   0.631  -0.036  0.00  0.00    +0.000 A 
ATOM      9  C   UNL     1      -4.885   0.560   0.978  0.00  0.00    +0.000 A 
ATOM     10  C   UNL     1      -6.202   0.990   0.776  0.00  0.00    +0.000 A 
ATOM     11  C   UNL     1      -6.616   1.495  -0.434  0.00  0.00    +0.000 A 
ATOM     12 CL   UNL     1      -8.275   2.043  -0.698  0.00  0.00    +0.000 Cl
ATOM     13  C   UNL     1      -5.681   1.564  -1.452  0.00  0.00    +0.000 A 
ATOM     14  C   UNL     1      -4.377   1.137  -1.248  0.00  0.00    +0.000 A 
ENDBRANCH   4   8
BRANCH   1  15
ATOM     15  C   UNL     1       1.146  -1.798  -0.302  0.00  0.00    +0.000 C 
BRANCH  15  16
ATOM     16  C   UNL     1       1.990  -1.422  -1.473  0.00  0.00    +0.000 C 
BRANCH  16  17
ATOM     17  C   UNL     1       2.241   0.044  -1.637  0.00  0.00    +0.000 C 
BRANCH  17  19
ATOM     18  O   UNL     1       2.438   1.665   0.043  0.00  0.00    +0.000 OA
ATOM     19  C   UNL     1       2.916   0.653  -0.487  0.00  0.00    +0.000 C 
BRANCH  19  20
ATOM     20  C   UNL     1       4.149   0.091   0.053  0.00  0.00    +0.000 A 
ATOM     21  C   UNL     1       4.832   0.626   1.117  0.00  0.00    +0.000 A 
ATOM     22  C   UNL     1       5.974  -0.000   1.548  0.00  0.00    +0.000 A 
ATOM     23  C   UNL     1       6.473  -1.141   0.969  0.00  0.00    +0.000 A 
ATOM     24  F   UNL     1       7.586  -1.781   1.367  0.00  0.00    +0.000 F 
ATOM     25  C   UNL     1       5.766  -1.653  -0.095  0.00  0.00    +0.000 A 
ATOM     26  C   UNL     1       4.626  -1.060  -0.553  0.00  0.00    +0.000 A 
ENDBRANCH  19  20
ENDBRANCH  17  19
ENDBRANCH  16  17
ENDBRANCH  15  16
ENDBRANCH   1  15
TORSDOF 6
