REMARK  Name = 
REMARK  10 active torsions:
REMARK  status: ('A' for Active; 'I' for Inactive)
REMARK    1  A    between atoms: C_2  and  N_5
REMARK    2  A    between atoms: N_8  and  C_9
REMARK    3  A    between atoms: C_9  and  C_10
REMARK    4  A    between atoms: C_9  and  C_34
REMARK    5  A    between atoms: C_16  and  C_17
REMARK    6  A    between atoms: N_19  and  C_20
REMARK    7  A    between atoms: C_20  and  C_21
REMARK    8  A    between atoms: C_20  and  C_26
REMARK    9  A    between atoms: C_21  and  C_22
REMARK   10  A    between atoms: C_26  and  C_28
REMARK                            x       y       z     vdW  Elec       q    Type
REMARK                         _______ _______ _______ _____ _____    ______ ____
ROOT
ATOM      1  C   UNL     1       1.585  -1.800   0.145  0.00  0.00    +0.000 C 
ATOM      2  O   UNL     1       2.527  -2.373   0.741  0.00  0.00    +0.000 OA
ATOM      3  N   UNL     1       0.546  -2.552  -0.263  0.00  0.00    +0.000 N 
ATOM      4  C   UNL     1       0.454  -4.005  -0.211  0.00  0.00    +0.000 C 
ATOM      5  C   UNL     1      -0.476  -4.098   1.111  0.00  0.00    +0.000 C 
ATOM      6  C   UNL     1      -1.587  -2.910   0.659  0.00  0.00    +0.000 C 
ATOM      7  C   UNL     1      -0.817  -2.549  -0.861  0.00  0.00    +0.000 C 
ATOM      8  C   UNL     1      -1.965  -4.535   0.363  0.00  0.00    +0.000 C 
ATOM      9  C   UNL     1      -1.973  -5.059  -0.909  0.00  0.00    +0.000 C 
ATOM     10  C   UNL     1      -2.869  -4.984   1.518  0.00  0.00    +0.000 C 
ENDROOT
BRANCH   7  11
ATOM     11  C   UNL     1      -1.257  -1.043  -0.788  0.00  0.00    +0.000 C 
ATOM     12  O   UNL     1      -0.755  -0.321   0.076  0.00  0.00    +0.000 OA
ATOM     13  N   UNL     1      -2.196  -0.483  -1.659  0.00  0.00    +0.000 NA
BRANCH  13  14
ATOM     14  C   UNL     1      -2.561   1.038  -1.476  0.00  0.00    +0.000 C 
BRANCH  14  15
ATOM     15  C   UNL     1      -3.989   0.629  -0.844  0.00  0.00    +0.000 C 
ATOM     16  O   UNL     1      -4.681  -0.136  -1.597  0.00  0.00    +0.000 OA
BRANCH  15  17
ATOM     17  C   UNL     1      -4.489   1.019   0.397  0.00  0.00    +0.000 C 
ATOM     18  N   UNL     1      -5.908   0.696   0.728  0.00  0.00    +0.000 NA
ATOM     19  O   UNL     1      -3.967   1.609   1.328  0.00  0.00    +0.000 OA
ENDBRANCH  15  17
ENDBRANCH  14  15
BRANCH  14  20
ATOM     20  C   UNL     1      -1.862   1.404  -0.106  0.00  0.00    +0.000 C 
BRANCH  20  21
ATOM     21  C   UNL     1      -2.112   2.949  -0.100  0.00  0.00    +0.000 C 
ATOM     22  C   UNL     1      -1.367   3.572  -1.301  0.00  0.00    +0.000 C 
ATOM     23  C   UNL     1      -2.581   3.322  -2.196  0.00  0.00    +0.000 C 
ATOM     24  C   UNL     1      -3.369   3.364  -0.884  0.00  0.00    +0.000 C 
ENDBRANCH  20  21
ENDBRANCH  14  20
ENDBRANCH  13  14
ENDBRANCH   7  11
BRANCH   1  25
ATOM     25  C   UNL     1       1.689  -0.220  -0.094  0.00  0.00    +0.000 C 
BRANCH  25  29
ATOM     26  N   UNL     1       4.446   1.660   1.770  0.00  0.00    +0.000 NA
ATOM     27  C   UNL     1       3.275   1.373   1.034  0.00  0.00    +0.000 C 
ATOM     28  O   UNL     1       2.539   2.335   0.699  0.00  0.00    +0.000 OA
ATOM     29  N   UNL     1       3.006   0.024   0.720  0.00  0.00    +0.000 NA
BRANCH  26  31
ATOM     30  C   UNL     1       5.066   3.908   0.962  0.00  0.00    +0.000 C 
ATOM     31  C   UNL     1       4.838   2.996   2.152  0.00  0.00    +0.000 C 
ATOM     32  C   UNL     1       3.813   3.558   3.114  0.00  0.00    +0.000 C 
ATOM     33  C   UNL     1       6.154   2.887   2.884  0.00  0.00    +0.000 C 
ENDBRANCH  26  31
ENDBRANCH  25  29
BRANCH  25  34
ATOM     34  C   UNL     1       2.530  -0.368  -1.537  0.00  0.00    +0.000 C 
ATOM     35  C   UNL     1       3.184   0.992  -1.616  0.00  0.00    +0.000 C 
ATOM     36  C   UNL     1       3.563  -1.377  -1.340  0.00  0.00    +0.000 C 
ATOM     37  C   UNL     1       1.565  -0.521  -2.618  0.00  0.00    +0.000 C 
ENDBRANCH  25  34
ENDBRANCH   1  25
TORSDOF 10
