REMARK  Name = 
REMARK  3 active torsions:
REMARK  status: ('A' for Active; 'I' for Inactive)
REMARK    1  A    between atoms: C_3  and  C_4
REMARK    2  A    between atoms: C_20  and  C_21
REMARK    3  A    between atoms: C_24  and  N_25
REMARK                            x       y       z     vdW  Elec       q    Type
REMARK                         _______ _______ _______ _____ _____    ______ ____
ROOT
ATOM      1  C   UNL     1      -3.538  -1.085   1.632  0.00  0.00    +0.000 C 
ATOM      2  O   UNL     1      -3.593  -1.988   2.719  0.00  0.00    +0.000 OA
ATOM      3  C   UNL     1      -4.372   0.165   1.939  0.00  0.00    +0.000 C 
ATOM      4  C   UNL     1      -3.575   1.349   1.358  0.00  0.00    +0.000 C 
ATOM      5  C   UNL     1      -2.588   0.574   0.364  0.00  0.00    +0.000 C 
ATOM      6  C   UNL     1      -1.214   1.475   0.731  0.00  0.00    +0.000 C 
ATOM      7  C   UNL     1      -1.723   2.732  -0.195  0.00  0.00    +0.000 C 
ATOM      8  C   UNL     1      -0.453   3.533  -0.314  0.00  0.00    +0.000 C 
ATOM      9  C   UNL     1       0.441   2.765  -1.254  0.00  0.00    +0.000 C 
ATOM     10  C   UNL     1       1.262   3.460  -2.060  0.00  0.00    +0.000 C 
ATOM     11  C   UNL     1       2.097   2.669  -2.941  0.00  0.00    +0.000 C 
ATOM     12  O   UNL     1       3.241   3.072  -3.303  0.00  0.00    +0.000 OA
ATOM     13  C   UNL     1       1.544   1.374  -3.394  0.00  0.00    +0.000 C 
ATOM     14  C   UNL     1       1.152   0.485  -2.251  0.00  0.00    +0.000 C 
ATOM     15  C   UNL     1       0.368   1.313  -1.235  0.00  0.00    +0.000 C 
ATOM     16  C   UNL     1      -0.371   0.735  -0.355  0.00  0.00    +0.000 C 
ATOM     17  C   UNL     1      -0.488  -0.844  -0.337  0.00  0.00    +0.000 C 
ATOM     18  C   UNL     1      -1.017  -1.063   1.170  0.00  0.00    +0.000 C 
ATOM     19  C   UNL     1      -2.216  -0.492   1.528  0.00  0.00    +0.000 C 
ATOM     20  C   UNL     1      -2.027   0.332   2.821  0.00  0.00    +0.000 C 
ENDROOT
BRANCH  17  21
ATOM     21  C   UNL     1       1.024  -1.104   0.038  0.00  0.00    +0.000 A 
ATOM     22  C   UNL     1       1.717  -2.069  -0.628  0.00  0.00    +0.000 A 
ATOM     23  C   UNL     1       3.047  -2.320  -0.315  0.00  0.00    +0.000 A 
ATOM     24  C   UNL     1       3.707  -1.612   0.665  0.00  0.00    +0.000 A 
ATOM     25  C   UNL     1       2.972  -0.645   1.316  0.00  0.00    +0.000 A 
ATOM     26  C   UNL     1       1.639  -0.398   0.999  0.00  0.00    +0.000 A 
BRANCH  24  27
ATOM     27  N   UNL     1       5.065  -1.869   0.990  0.00  0.00    +0.000 N 
ATOM     28  C   UNL     1       6.138  -1.212   0.292  0.00  0.00    +0.000 C 
ATOM     29  C   UNL     1       5.409  -2.798   2.035  0.00  0.00    +0.000 C 
ENDBRANCH  24  27
ENDBRANCH  17  21
BRANCH   1  32
ATOM     30  C   UNL     1      -5.061  -2.725  -1.840  0.00  0.00    +0.000 C 
ATOM     31  C   UNL     1      -4.511  -2.148  -0.596  0.00  0.00    +0.000 C 
ATOM     32  C   UNL     1      -4.077  -1.661   0.419  0.00  0.00    +0.000 C 
ENDBRANCH   1  32
TORSDOF 3
