REMARK  Name = 
REMARK  4 active torsions:
REMARK  status: ('A' for Active; 'I' for Inactive)
REMARK    1  A    between atoms: O_2  and  C_3
REMARK    2  A    between atoms: C_5  and  C_6
REMARK    3  A    between atoms: C_25  and  O_26
REMARK    4  A    between atoms: C_28  and  O_29
REMARK                            x       y       z     vdW  Elec       q    Type
REMARK                         _______ _______ _______ _____ _____    ______ ____
ROOT
ATOM      1  C   UNL     1      -0.219   0.908  -1.472  0.00  0.00    +0.000 C 
ATOM      2  C   UNL     1      -1.452   0.816  -0.542  0.00  0.00    +0.000 A 
ATOM      3  C   UNL     1      -1.567   1.928   0.267  0.00  0.00    +0.000 A 
ATOM      4  C   UNL     1      -2.632   2.043   1.181  0.00  0.00    +0.000 A 
ATOM      5  C   UNL     1      -3.556   1.036   1.258  0.00  0.00    +0.000 A 
ATOM      6  C   UNL     1      -3.444  -0.086   0.446  0.00  0.00    +0.000 A 
ATOM      7  C   UNL     1      -2.350  -0.130  -0.446  0.00  0.00    +0.000 A 
ATOM      8  C   UNL     1      -2.374  -1.470  -1.310  0.00  0.00    +0.000 C 
ATOM      9  O   UNL     1      -2.398  -2.401  -0.128  0.00  0.00    +0.000 OA
ATOM     10  C   UNL     1      -0.699  -1.569  -1.412  0.00  0.00    +0.000 C 
ATOM     11  C   UNL     1      -0.693  -2.603  -2.619  0.00  0.00    +0.000 C 
ATOM     12  O   UNL     1       0.498  -2.164  -3.280  0.00  0.00    +0.000 OA
ATOM     13  C   UNL     1       0.802  -0.838  -2.957  0.00  0.00    +0.000 C 
ATOM     14  O   UNL     1       1.843  -0.206  -2.983  0.00  0.00    +0.000 OA
ATOM     15  C   UNL     1      -0.611  -0.322  -2.522  0.00  0.00    +0.000 C 
ATOM     16  O   UNL     1      -4.500   1.364   2.213  0.00  0.00    +0.000 OA
ATOM     17  C   UNL     1      -4.326   2.762   2.442  0.00  0.00    +0.000 C 
ATOM     18  O   UNL     1      -2.980   3.021   2.086  0.00  0.00    +0.000 OA
ENDROOT
BRANCH   1  21
ATOM     19  C   UNL     1       2.268  -1.279   0.477  0.00  0.00    +0.000 A 
ATOM     20  C   UNL     1       1.281  -0.931  -0.392  0.00  0.00    +0.000 A 
ATOM     21  C   UNL     1       0.865   0.278  -0.557  0.00  0.00    +0.000 A 
ATOM     22  C   UNL     1       1.462   1.272   0.197  0.00  0.00    +0.000 A 
ATOM     23  C   UNL     1       2.462   1.029   1.099  0.00  0.00    +0.000 A 
ATOM     24  C   UNL     1       2.860  -0.291   1.225  0.00  0.00    +0.000 A 
BRANCH  19  26
ATOM     25  C   UNL     1       2.027  -3.612  -0.187  0.00  0.00    +0.000 C 
ATOM     26  O   UNL     1       2.650  -2.606   0.586  0.00  0.00    +0.000 OA
ENDBRANCH  19  26
BRANCH  23  27
ATOM     27  O   UNL     1       3.087   1.992   1.873  0.00  0.00    +0.000 OA
ATOM     28  C   UNL     1       2.612   3.333   1.671  0.00  0.00    +0.000 C 
ENDBRANCH  23  27
BRANCH  24  29
ATOM     29  O   UNL     1       3.865  -0.633   2.113  0.00  0.00    +0.000 OA
ATOM     30  C   UNL     1       5.219  -0.640   1.674  0.00  0.00    +0.000 C 
ENDBRANCH  24  29
ENDBRANCH   1  21
TORSDOF 4
