REMARK  Name = 
REMARK  2 active torsions:
REMARK  status: ('A' for Active; 'I' for Inactive)
REMARK    1  A    between atoms: N_5  and  C_6
REMARK    2  A    between atoms: C_9  and  C_10
REMARK                            x       y       z     vdW  Elec       q    Type
REMARK                         _______ _______ _______ _____ _____    ______ ____
ROOT
ATOM      1  N   UNL     1      -4.545   0.910   0.841  0.00  0.00    +0.000 NA
ATOM      2  C   UNL     1      -3.192   0.738   0.435  0.00  0.00    +0.000 A 
ATOM      3  C   UNL     1      -2.210   1.645   0.617  0.00  0.00    +0.000 A 
ATOM      4  C   UNL     1      -0.902   1.367   0.173  0.00  0.00    +0.000 A 
ATOM      5  N   UNL     1      -0.655   0.216  -0.417  0.00  0.00    +0.000 N 
ATOM      6  C   UNL     1      -1.612  -0.684  -0.600  0.00  0.00    +0.000 A 
ATOM      7  O   UNL     1      -1.337  -1.772  -1.168  0.00  0.00    +0.000 OA
ATOM      8  N   UNL     1      -2.900  -0.424  -0.170  0.00  0.00    +0.000 NA
ENDROOT
BRANCH   5   9
ATOM      9  C   UNL     1       0.764  -0.135  -0.922  0.00  0.00    +0.000 C 
ATOM     10  C   UNL     1       0.801  -1.658  -0.160  0.00  0.00    +0.000 C 
ATOM     11  S   UNL     1       2.639  -1.686  -0.084  0.00  0.00    +0.000 S 
ATOM     12  C   UNL     1       2.820   0.223  -0.451  0.00  0.00    +0.000 C 
ATOM     13  O   UNL     1       1.530   0.488   0.272  0.00  0.00    +0.000 OA
BRANCH  12  14
ATOM     14  C   UNL     1       3.760   0.496   0.827  0.00  0.00    +0.000 C 
ATOM     15  O   UNL     1       5.040   0.275   0.269  0.00  0.00    +0.000 OA
ENDBRANCH  12  14
ENDBRANCH   5   9
TORSDOF 2
