REMARK  Name = 
REMARK  5 active torsions:
REMARK  status: ('A' for Active; 'I' for Inactive)
REMARK    1  A    between atoms: N_5  and  C_6
REMARK    2  A    between atoms: C_6  and  C_7
REMARK    3  A    between atoms: C_7  and  C_8
REMARK    4  A    between atoms: C_8  and  N_9
REMARK    5  A    between atoms: C_20  and  C_21
REMARK                            x       y       z     vdW  Elec       q    Type
REMARK                         _______ _______ _______ _____ _____    ______ ____
ROOT
ATOM      1  N   UNL     1      -1.039  -0.668   0.085  0.00  0.00    +0.000 N 
ATOM      2  C   UNL     1      -1.135  -2.054   0.111  0.00  0.00    +0.000 A 
ATOM      3  C   UNL     1      -0.135  -2.755  -0.595  0.00  0.00    +0.000 A 
ATOM      4  C   UNL     1      -0.232  -4.107  -0.722  0.00  0.00    +0.000 A 
ATOM      5  C   UNL     1      -1.274  -4.785  -0.172  0.00  0.00    +0.000 A 
ATOM      6  C   UNL     1      -2.253  -4.117   0.530  0.00  0.00    +0.000 A 
ATOM      7  C   UNL     1      -2.161  -2.766   0.654  0.00  0.00    +0.000 A 
ATOM      8  S   UNL     1      -3.450  -1.887   1.570  0.00  0.00    +0.000 S 
ATOM      9  C   UNL     1      -3.156  -0.139   1.188  0.00  0.00    +0.000 A 
ATOM     10  C   UNL     1      -4.126   0.716   1.574  0.00  0.00    +0.000 A 
ATOM     11  C   UNL     1      -3.985   2.096   1.380  0.00  0.00    +0.000 A 
ATOM     12  C   UNL     1      -2.837   2.520   0.788  0.00  0.00    +0.000 A 
ATOM     13  C   UNL     1      -1.839   1.615   0.394  0.00  0.00    +0.000 A 
ATOM     14  C   UNL     1      -2.012   0.237   0.598  0.00  0.00    +0.000 A 
ENDROOT
BRANCH  12  15
ATOM     15  C   UNL     1      -2.632   3.967   0.472  0.00  0.00    +0.000 C 
ATOM     16  F   UNL     1      -2.903   4.715   1.594  0.00  0.00    +0.000 F 
ATOM     17  F   UNL     1      -3.454   4.418  -0.548  0.00  0.00    +0.000 F 
ATOM     18  F   UNL     1      -1.283   4.136   0.174  0.00  0.00    +0.000 F 
ENDBRANCH  12  15
BRANCH   1  19
ATOM     19  C   UNL     1       0.165   0.037  -0.369  0.00  0.00    +0.000 C 
BRANCH  19  20
ATOM     20  C   UNL     1       1.304  -0.034   0.317  0.00  0.00    +0.000 C 
BRANCH  20  21
ATOM     21  C   UNL     1       2.462  -0.455   0.908  0.00  0.00    +0.000 C 
BRANCH  21  26
ATOM     22  C   UNL     1       7.010  -0.407  -0.673  0.00  0.00    +0.000 C 
ATOM     23  N   UNL     1       6.162   0.490   0.148  0.00  0.00    +0.000 NA
ATOM     24  C   UNL     1       5.195   1.018  -0.730  0.00  0.00    +0.000 C 
ATOM     25  C   UNL     1       3.790   0.634  -0.610  0.00  0.00    +0.000 C 
ATOM     26  N   UNL     1       3.551  -0.723  -0.119  0.00  0.00    +0.000 NA
ATOM     27  C   UNL     1       4.674  -1.346   0.455  0.00  0.00    +0.000 C 
ATOM     28  C   UNL     1       5.592  -0.357   1.156  0.00  0.00    +0.000 C 
ENDBRANCH  21  26
ENDBRANCH  20  21
ENDBRANCH  19  20
ENDBRANCH   1  19
TORSDOF 5
