REMARK  Name = 
REMARK  5 active torsions:
REMARK  status: ('A' for Active; 'I' for Inactive)
REMARK    1  A    between atoms: C_4  and  C_5
REMARK    2  A    between atoms: C_10  and  O_11
REMARK    3  A    between atoms: O_11  and  C_12
REMARK    4  A    between atoms: N_15  and  C_16
REMARK    5  A    between atoms: C_19  and  C_20
REMARK                            x       y       z     vdW  Elec       q    Type
REMARK                         _______ _______ _______ _____ _____    ______ ____
ROOT
ATOM      1  C   UNL     1      -0.852  -1.222   0.702  0.00  0.00    +0.000 A 
ATOM      2  N   UNL     1       0.102  -0.301   1.073  0.00  0.00    +0.000 NA
ATOM      3  C   UNL     1       1.295  -0.192   0.501  0.00  0.00    +0.000 A 
ATOM      4  N   UNL     1       2.228   0.777   0.930  0.00  0.00    +0.000 NA
ATOM      5  N   UNL     1       1.580  -1.047  -0.511  0.00  0.00    +0.000 NA
ATOM      6  C   UNL     1       0.720  -1.959  -0.926  0.00  0.00    +0.000 A 
ATOM      7  N   UNL     1       1.031  -2.868  -2.006  0.00  0.00    +0.000 NA
ATOM      8  C   UNL     1      -0.525  -2.061  -0.316  0.00  0.00    +0.000 A 
ATOM      9 BR   UNL     1      -1.695  -3.442  -0.973  0.00  0.00    +0.000 Br
ENDROOT
BRANCH   4  10
ATOM     10  C   UNL     1       3.512   0.933   0.352  0.00  0.00    +0.000 A 
ATOM     11  C   UNL     1       4.411   1.879   0.779  0.00  0.00    +0.000 A 
ATOM     12  C   UNL     1       5.662   1.999   0.184  0.00  0.00    +0.000 A 
ATOM     13  C   UNL     1       6.030   1.161  -0.858  0.00  0.00    +0.000 A 
ATOM     14  C   UNL     1       5.109   0.225  -1.261  0.00  0.00    +0.000 A 
ATOM     15  C   UNL     1       3.866   0.098  -0.679  0.00  0.00    +0.000 A 
BRANCH  13  16
ATOM     16  C   UNL     1       7.338   1.288  -1.477  0.00  0.00    +0.000 C 
ATOM     17  N   UNL     1       8.375   1.394  -1.983  0.00  0.00    +0.000 NA
ENDBRANCH  13  16
ENDBRANCH   4  10
BRANCH   1  18
ATOM     18  O   UNL     1      -2.048  -1.224   1.384  0.00  0.00    +0.000 OA
BRANCH  18  26
ATOM     19  C   UNL     1      -1.894   1.529   1.432  0.00  0.00    +0.000 C 
ATOM     20  C   UNL     1      -3.141   0.869   0.965  0.00  0.00    +0.000 A 
ATOM     21  C   UNL     1      -4.232   1.604   0.559  0.00  0.00    +0.000 A 
ATOM     22  C   UNL     1      -5.396   1.011   0.135  0.00  0.00    +0.000 A 
ATOM     23  C   UNL     1      -5.442  -0.356   0.129  0.00  0.00    +0.000 A 
ATOM     24  C   UNL     1      -4.332  -1.115   0.542  0.00  0.00    +0.000 A 
ATOM     25  C   UNL     1      -4.533  -2.573   0.558  0.00  0.00    +0.000 C 
ATOM     26  C   UNL     1      -3.166  -0.541   0.965  0.00  0.00    +0.000 A 
BRANCH  22  27
ATOM     27  C   UNL     1      -6.542   1.758  -0.293  0.00  0.00    +0.000 C 
ATOM     28  N   UNL     1      -7.460   2.376  -0.633  0.00  0.00    +0.000 NA
ENDBRANCH  22  27
ENDBRANCH  18  26
ENDBRANCH   1  18
TORSDOF 5
