REMARK  Name = 
REMARK  18 active torsions:
REMARK  status: ('A' for Active; 'I' for Inactive)
REMARK    1  A    between atoms: O_2  and  C_3
REMARK    2  A    between atoms: N_5  and  C_6
REMARK    3  A    between atoms: C_6  and  C_7
REMARK    4  A    between atoms: C_6  and  C_48
REMARK    5  A    between atoms: N_9  and  C_10
REMARK    6  A    between atoms: C_10  and  C_11
REMARK    7  A    between atoms: C_10  and  C_18
REMARK    8  A    between atoms: C_11  and  C_12
REMARK    9  A    between atoms: C_18  and  C_20
REMARK   10  A    between atoms: C_20  and  N_21
REMARK   11  A    between atoms: N_21  and  C_22
REMARK   12  A    between atoms: N_21  and  N_35
REMARK   13  A    between atoms: C_22  and  C_23
REMARK   14  A    between atoms: C_26  and  C_27
REMARK   15  A    between atoms: C_36  and  C_38
REMARK   16  A    between atoms: C_38  and  N_39
REMARK   17  A    between atoms: C_38  and  C_44
REMARK   18  A    between atoms: C_40  and  O_42
REMARK                            x       y       z     vdW  Elec       q    Type
REMARK                         _______ _______ _______ _____ _____    ______ ____
ROOT
ATOM      1  N   UNL     1      -1.375   0.085   1.679  0.00  0.00    +0.000 NA
ENDROOT
BRANCH   1   2
ATOM      2  N   UNL     1      -2.226  -0.421   0.690  0.00  0.00    +0.000 NA
ATOM      3  C   UNL     1      -2.504  -1.807   0.596  0.00  0.00    +0.000 C 
ATOM      4  O   UNL     1      -1.969  -2.516   1.418  0.00  0.00    +0.000 OA
BRANCH   3   5
ATOM      5  C   UNL     1      -3.469  -2.334  -0.551  0.00  0.00    +0.000 C 
BRANCH   5   6
ATOM      6  C   UNL     1      -4.851  -2.169   0.337  0.00  0.00    +0.000 C 
ATOM      7  C   UNL     1      -5.992  -2.599  -0.472  0.00  0.00    +0.000 C 
ATOM      8  C   UNL     1      -5.039  -0.657   0.294  0.00  0.00    +0.000 C 
ATOM      9  C   UNL     1      -4.633  -2.528   1.696  0.00  0.00    +0.000 C 
ENDBRANCH   5   6
BRANCH   5  10
ATOM     10  N   UNL     1      -3.241  -3.848  -0.297  0.00  0.00    +0.000 NA
ATOM     11  C   UNL     1      -3.818  -4.815  -1.029  0.00  0.00    +0.000 C 
ATOM     12  O   UNL     1      -4.542  -4.376  -1.923  0.00  0.00    +0.000 OA
BRANCH  11  13
ATOM     13  O   UNL     1      -3.701  -6.166  -0.905  0.00  0.00    +0.000 OA
ATOM     14  C   UNL     1      -4.405  -7.014  -1.787  0.00  0.00    +0.000 C 
ENDBRANCH  11  13
ENDBRANCH   5  10
ENDBRANCH   3   5
ENDBRANCH   1   2
BRANCH   1  15
ATOM     15  C   UNL     1      -0.476  -0.852   2.212  0.00  0.00    +0.000 C 
BRANCH  15  16
ATOM     16  C   UNL     1       0.446  -1.474   1.046  0.00  0.00    +0.000 C 
ATOM     17  O   UNL     1       1.142  -2.394   2.066  0.00  0.00    +0.000 OA
BRANCH  16  18
ATOM     18  C   UNL     1       1.687  -0.328   1.191  0.00  0.00    +0.000 C 
BRANCH  18  21
ATOM     19  C   UNL     1       4.128  -1.156   1.043  0.00  0.00    +0.000 C 
ATOM     20  O   UNL     1       4.487  -0.063   1.623  0.00  0.00    +0.000 OA
ATOM     21  N   UNL     1       2.776  -1.267   0.801  0.00  0.00    +0.000 NA
BRANCH  19  22
ATOM     22  C   UNL     1       5.167  -2.192   0.706  0.00  0.00    +0.000 C 
BRANCH  22  23
ATOM     23  C   UNL     1       5.037  -2.596  -0.742  0.00  0.00    +0.000 C 
ATOM     24  C   UNL     1       5.368  -1.495  -1.722  0.00  0.00    +0.000 C 
ATOM     25  C   UNL     1       5.650  -3.910  -1.103  0.00  0.00    +0.000 C 
ATOM     26  C   UNL     1       3.490  -2.736  -1.057  0.00  0.00    +0.000 C 
ENDBRANCH  22  23
BRANCH  22  29
ATOM     27  C   UNL     1       7.644  -1.758   0.424  0.00  0.00    +0.000 C 
ATOM     28  O   UNL     1       7.705  -2.322  -0.670  0.00  0.00    +0.000 OA
ATOM     29  N   UNL     1       6.446  -1.694   1.078  0.00  0.00    +0.000 NA
BRANCH  27  31
ATOM     30  C   UNL     1      10.054  -1.361   0.106  0.00  0.00    +0.000 C 
ATOM     31  O   UNL     1       8.864  -1.227   0.884  0.00  0.00    +0.000 OA
ENDBRANCH  27  31
ENDBRANCH  22  29
ENDBRANCH  19  22
ENDBRANCH  18  21
BRANCH  18  32
ATOM     32  C   UNL     1       1.384   0.424  -0.114  0.00  0.00    +0.000 C 
BRANCH  32  33
ATOM     33  C   UNL     1       2.472   1.240  -0.669  0.00  0.00    +0.000 A 
ATOM     34  C   UNL     1       2.696   2.506  -0.159  0.00  0.00    +0.000 A 
ATOM     35  C   UNL     1       3.647   3.318  -0.677  0.00  0.00    +0.000 A 
ATOM     36  C   UNL     1       4.436   2.897  -1.752  0.00  0.00    +0.000 A 
ATOM     37  C   UNL     1       4.209   1.645  -2.250  0.00  0.00    +0.000 A 
ATOM     38  C   UNL     1       3.249   0.847  -1.714  0.00  0.00    +0.000 A 
ENDBRANCH  32  33
ENDBRANCH  18  32
ENDBRANCH  16  18
ENDBRANCH  15  16
ENDBRANCH   1  15
BRANCH   1  39
ATOM     39  C   UNL     1      -0.843   1.294   1.181  0.00  0.00    +0.000 C 
BRANCH  39  40
ATOM     40  C   UNL     1      -1.836   2.225   0.741  0.00  0.00    +0.000 A 
ATOM     41  C   UNL     1      -3.173   2.021   0.860  0.00  0.00    +0.000 A 
ATOM     42  C   UNL     1      -4.067   2.976   0.419  0.00  0.00    +0.000 A 
ATOM     43  C   UNL     1      -3.649   4.156  -0.150  0.00  0.00    +0.000 A 
ATOM     44  C   UNL     1      -2.295   4.354  -0.267  0.00  0.00    +0.000 A 
ATOM     45  C   UNL     1      -1.411   3.412   0.167  0.00  0.00    +0.000 A 
BRANCH  43  46
ATOM     46  C   UNL     1      -4.622   5.170  -0.616  0.00  0.00    +0.000 A 
ATOM     47  C   UNL     1      -5.964   4.939  -0.494  0.00  0.00    +0.000 A 
ATOM     48  C   UNL     1      -6.811   5.943  -0.959  0.00  0.00    +0.000 A 
ATOM     49  C   UNL     1      -6.260   7.092  -1.506  0.00  0.00    +0.000 A 
ATOM     50  C   UNL     1      -4.905   7.246  -1.591  0.00  0.00    +0.000 A 
ATOM     51  N   UNL     1      -4.105   6.285  -1.145  0.00  0.00    +0.000 NA
ENDBRANCH  43  46
ENDBRANCH  39  40
ENDBRANCH   1  39
TORSDOF 18
