REMARK  Name = 
REMARK  5 active torsions:
REMARK  status: ('A' for Active; 'I' for Inactive)
REMARK    1  A    between atoms: O_2  and  C_3
REMARK    2  A    between atoms: C_22  and  C_24
REMARK    3  A    between atoms: C_24  and  C_26
REMARK    4  A    between atoms: C_29  and  O_30
REMARK    5  A    between atoms: O_30  and  C_31
REMARK                            x       y       z     vdW  Elec       q    Type
REMARK                         _______ _______ _______ _____ _____    ______ ____
ROOT
ATOM      1  C   UNL     1      -4.803  -2.104  -0.469  0.00  0.00    +0.000 A 
ATOM      2  C   UNL     1      -6.151  -1.991  -0.716  0.00  0.00    +0.000 A 
ATOM      3  C   UNL     1      -6.680  -0.735  -0.901  0.00  0.00    +0.000 A 
ATOM      4  C   UNL     1      -5.875   0.390  -0.838  0.00  0.00    +0.000 A 
ATOM      5  C   UNL     1      -4.529   0.276  -0.591  0.00  0.00    +0.000 A 
ATOM      6  C   UNL     1      -3.985  -1.001  -0.402  0.00  0.00    +0.000 A 
ATOM      7  C   UNL     1      -2.552  -1.152  -0.137  0.00  0.00    +0.000 C 
ATOM      8  O   UNL     1      -2.051  -2.292   0.034  0.00  0.00    +0.000 OA
ATOM      9  C   UNL     1      -1.654  -0.004  -0.060  0.00  0.00    +0.000 A 
ATOM     10  C   UNL     1      -0.298  -0.178   0.194  0.00  0.00    +0.000 A 
ATOM     11  O   UNL     1       0.177  -1.470   0.371  0.00  0.00    +0.000 OA
ATOM     12  C   UNL     1       0.486   0.932   0.253  0.00  0.00    +0.000 A 
ATOM     13  C   UNL     1      -0.027   2.169   0.074  0.00  0.00    +0.000 A 
ATOM     14  C   UNL     1      -1.361   2.317  -0.174  0.00  0.00    +0.000 A 
ATOM     15  O   UNL     1      -1.847   3.603  -0.353  0.00  0.00    +0.000 OA
ATOM     16  C   UNL     1      -2.190   1.238  -0.244  0.00  0.00    +0.000 A 
ATOM     17  C   UNL     1      -3.614   1.409  -0.510  0.00  0.00    +0.000 C 
ATOM     18  O   UNL     1      -4.111   2.554  -0.680  0.00  0.00    +0.000 OA
ATOM     19  C   UNL     1       0.914   3.318   0.172  0.00  0.00    +0.000 C 
ATOM     20  C   UNL     1       2.070   3.021  -0.739  0.00  0.00    +0.000 C 
ATOM     21  O   UNL     1       1.582   3.328  -2.039  0.00  0.00    +0.000 OA
ATOM     22  C   UNL     1       2.515   1.632  -0.793  0.00  0.00    +0.000 C 
ATOM     23  C   UNL     1       2.036   0.817   0.548  0.00  0.00    +0.000 C 
ENDROOT
BRANCH   1  25
ATOM     24  C   UNL     1      -5.073  -4.541  -0.341  0.00  0.00    +0.000 C 
ATOM     25  O   UNL     1      -4.284  -3.374  -0.285  0.00  0.00    +0.000 OA
ENDBRANCH   1  25
BRANCH  20  26
ATOM     26  C   UNL     1       3.114   4.027  -0.437  0.00  0.00    +0.000 C 
ATOM     27  O   UNL     1       3.404   4.891  -1.235  0.00  0.00    +0.000 OA
BRANCH  26  28
ATOM     28  C   UNL     1       3.831   3.980   0.882  0.00  0.00    +0.000 C 
ATOM     29  O   UNL     1       3.384   2.943   1.675  0.00  0.00    +0.000 OA
ENDBRANCH  26  28
ENDBRANCH  20  26
BRANCH  23  30
ATOM     30  O   UNL     1       2.169  -0.549  -0.038  0.00  0.00    +0.000 OA
BRANCH  30  31
ATOM     31  C   UNL     1       3.638  -0.867   0.115  0.00  0.00    +0.000 C 
ATOM     32  C   UNL     1       3.518  -1.331   1.668  0.00  0.00    +0.000 C 
ATOM     33  C   UNL     1       4.852  -2.171   1.986  0.00  0.00    +0.000 C 
ATOM     34  N   UNL     1       5.864  -1.635   0.934  0.00  0.00    +0.000 NA
ATOM     35  C   UNL     1       4.455  -3.581   1.137  0.00  0.00    +0.000 C 
ATOM     36  O   UNL     1       3.832  -4.193   2.344  0.00  0.00    +0.000 OA
ATOM     37  C   UNL     1       2.947  -3.084   0.544  0.00  0.00    +0.000 C 
ATOM     38  C   UNL     1       2.812  -4.381  -0.429  0.00  0.00    +0.000 C 
ATOM     39  O   UNL     1       3.486  -2.212  -0.521  0.00  0.00    +0.000 OA
ENDBRANCH  30  31
ENDBRANCH  23  30
TORSDOF 5
