REMARK  Name = 
REMARK  10 active torsions:
REMARK  status: ('A' for Active; 'I' for Inactive)
REMARK    1  A    between atoms: C_2  and  N_5
REMARK    2  A    between atoms: N_8  and  C_9
REMARK    3  A    between atoms: C_9  and  C_10
REMARK    4  A    between atoms: C_9  and  C_34
REMARK    5  A    between atoms: C_16  and  C_17
REMARK    6  A    between atoms: N_19  and  C_20
REMARK    7  A    between atoms: C_20  and  C_21
REMARK    8  A    between atoms: C_20  and  C_26
REMARK    9  A    between atoms: C_21  and  C_22
REMARK   10  A    between atoms: C_26  and  C_28
REMARK                            x       y       z     vdW  Elec       q    Type
REMARK                         _______ _______ _______ _____ _____    ______ ____
ROOT
ATOM      1  C   UNL     1       1.702  -0.825  -0.460  0.00  0.00    +0.000 C 
ATOM      2  O   UNL     1       1.828   0.435  -0.762  0.00  0.00    +0.000 OA
ATOM      3  N   UNL     1       0.446  -1.457  -0.348  0.00  0.00    +0.000 N 
ATOM      4  C   UNL     1      -0.029  -2.626   0.015  0.00  0.00    +0.000 C 
ATOM      5  C   UNL     1      -1.119  -3.129  -1.046  0.00  0.00    +0.000 C 
ATOM      6  C   UNL     1      -1.636  -1.662  -1.683  0.00  0.00    +0.000 C 
ATOM      7  C   UNL     1      -0.733  -0.619  -0.765  0.00  0.00    +0.000 C 
ATOM      8  C   UNL     1      -0.506  -2.580  -2.507  0.00  0.00    +0.000 C 
ATOM      9  C   UNL     1       0.732  -2.196  -2.763  0.00  0.00    +0.000 C 
ATOM     10  C   UNL     1      -1.315  -3.296  -3.600  0.00  0.00    +0.000 C 
ENDROOT
BRANCH   7  11
ATOM     11  C   UNL     1      -1.732  -0.651   0.471  0.00  0.00    +0.000 C 
ATOM     12  O   UNL     1      -1.490  -1.159   1.549  0.00  0.00    +0.000 OA
ATOM     13  N   UNL     1      -2.902  -0.070   0.289  0.00  0.00    +0.000 NA
BRANCH  13  14
ATOM     14  C   UNL     1      -4.025   0.081   1.169  0.00  0.00    +0.000 C 
BRANCH  14  15
ATOM     15  C   UNL     1      -5.121   0.026  -0.035  0.00  0.00    +0.000 C 
ATOM     16  O   UNL     1      -5.920  -0.935   0.025  0.00  0.00    +0.000 OA
BRANCH  15  17
ATOM     17  C   UNL     1      -5.142   0.960  -1.055  0.00  0.00    +0.000 C 
ATOM     18  N   UNL     1      -6.128   0.663  -2.144  0.00  0.00    +0.000 NA
ATOM     19  O   UNL     1      -4.490   1.981  -1.232  0.00  0.00    +0.000 OA
ENDBRANCH  15  17
ENDBRANCH  14  15
BRANCH  14  20
ATOM     20  C   UNL     1      -4.141   1.374   1.731  0.00  0.00    +0.000 C 
BRANCH  20  21
ATOM     21  C   UNL     1      -4.304   2.661   1.696  0.00  0.00    +0.000 C 
ATOM     22  C   UNL     1      -5.435   3.505   1.219  0.00  0.00    +0.000 C 
ATOM     23  C   UNL     1      -4.608   4.716   1.615  0.00  0.00    +0.000 C 
ATOM     24  C   UNL     1      -3.728   3.807   2.466  0.00  0.00    +0.000 C 
ENDBRANCH  20  21
ENDBRANCH  14  20
ENDBRANCH  13  14
ENDBRANCH   7  11
BRANCH   1  25
ATOM     25  C   UNL     1       3.111  -1.432  -0.279  0.00  0.00    +0.000 C 
BRANCH  25  29
ATOM     26  N   UNL     1       5.355   1.618   0.495  0.00  0.00    +0.000 NA
ATOM     27  C   UNL     1       4.655   0.551  -0.131  0.00  0.00    +0.000 C 
ATOM     28  O   UNL     1       4.868   0.335  -1.324  0.00  0.00    +0.000 OA
ATOM     29  N   UNL     1       3.733  -0.271   0.539  0.00  0.00    +0.000 NA
BRANCH  26  31
ATOM     30  C   UNL     1       7.395   1.523  -0.769  0.00  0.00    +0.000 C 
ATOM     31  C   UNL     1       6.312   2.453  -0.202  0.00  0.00    +0.000 C 
ATOM     32  C   UNL     1       6.967   3.446   0.749  0.00  0.00    +0.000 C 
ATOM     33  C   UNL     1       5.658   3.255  -1.284  0.00  0.00    +0.000 C 
ENDBRANCH  26  31
ENDBRANCH  25  29
BRANCH  25  34
ATOM     34  C   UNL     1       2.901  -2.399   0.980  0.00  0.00    +0.000 C 
ATOM     35  C   UNL     1       2.355  -3.713   0.554  0.00  0.00    +0.000 C 
ATOM     36  C   UNL     1       4.354  -2.661   1.417  0.00  0.00    +0.000 C 
ATOM     37  C   UNL     1       2.131  -1.707   2.036  0.00  0.00    +0.000 C 
ENDBRANCH  25  34
ENDBRANCH   1  25
TORSDOF 10
