REMARK  Name = 
REMARK  5 active torsions:
REMARK  status: ('A' for Active; 'I' for Inactive)
REMARK    1  A    between atoms: O_2  and  C_3
REMARK    2  A    between atoms: C_22  and  C_24
REMARK    3  A    between atoms: C_24  and  C_26
REMARK    4  A    between atoms: C_29  and  O_30
REMARK    5  A    between atoms: O_30  and  C_31
REMARK                            x       y       z     vdW  Elec       q    Type
REMARK                         _______ _______ _______ _____ _____    ______ ____
ROOT
ATOM      1  C   UNL     1      -4.843  -2.150  -0.692  0.00  0.00    +0.000 A 
ATOM      2  C   UNL     1      -6.120  -2.197  -0.176  0.00  0.00    +0.000 A 
ATOM      3  C   UNL     1      -6.493  -1.401   0.890  0.00  0.00    +0.000 A 
ATOM      4  C   UNL     1      -5.591  -0.533   1.467  0.00  0.00    +0.000 A 
ATOM      5  C   UNL     1      -4.294  -0.455   0.976  0.00  0.00    +0.000 A 
ATOM      6  C   UNL     1      -3.961  -1.264  -0.086  0.00  0.00    +0.000 A 
ATOM      7  C   UNL     1      -2.589  -1.162  -0.583  0.00  0.00    +0.000 C 
ATOM      8  O   UNL     1      -2.175  -1.855  -1.549  0.00  0.00    +0.000 OA
ATOM      9  C   UNL     1      -1.663  -0.233   0.053  0.00  0.00    +0.000 A 
ATOM     10  C   UNL     1      -0.359  -0.148  -0.432  0.00  0.00    +0.000 A 
ATOM     11  O   UNL     1      -0.018  -0.932  -1.480  0.00  0.00    +0.000 OA
ATOM     12  C   UNL     1       0.543   0.659   0.081  0.00  0.00    +0.000 A 
ATOM     13  C   UNL     1       0.183   1.468   1.149  0.00  0.00    +0.000 A 
ATOM     14  C   UNL     1      -1.076   1.452   1.691  0.00  0.00    +0.000 A 
ATOM     15  O   UNL     1      -1.473   2.222   2.735  0.00  0.00    +0.000 OA
ATOM     16  C   UNL     1      -2.008   0.570   1.114  0.00  0.00    +0.000 A 
ATOM     17  C   UNL     1      -3.365   0.470   1.606  0.00  0.00    +0.000 C 
ATOM     18  O   UNL     1      -3.671   1.207   2.574  0.00  0.00    +0.000 OA
ATOM     19  C   UNL     1       1.270   2.374   1.574  0.00  0.00    +0.000 C 
ATOM     20  C   UNL     1       1.799   3.154   0.384  0.00  0.00    +0.000 C 
ATOM     21  O   UNL     1       0.969   4.242   0.128  0.00  0.00    +0.000 OA
ATOM     22  C   UNL     1       1.844   2.350  -0.921  0.00  0.00    +0.000 C 
ATOM     23  C   UNL     1       2.016   0.871  -0.298  0.00  0.00    +0.000 C 
ENDROOT
BRANCH   1  25
ATOM     24  C   UNL     1      -5.354  -3.790  -2.316  0.00  0.00    +0.000 C 
ATOM     25  O   UNL     1      -4.387  -2.914  -1.759  0.00  0.00    +0.000 OA
ENDBRANCH   1  25
BRANCH  20  26
ATOM     26  C   UNL     1       3.167   3.572   0.732  0.00  0.00    +0.000 C 
ATOM     27  O   UNL     1       4.020   2.761   0.985  0.00  0.00    +0.000 OA
BRANCH  26  28
ATOM     28  C   UNL     1       3.511   5.004   0.775  0.00  0.00    +0.000 C 
ATOM     29  O   UNL     1       2.435   5.808   0.463  0.00  0.00    +0.000 OA
ENDBRANCH  26  28
ENDBRANCH  20  26
BRANCH  23  30
ATOM     30  O   UNL     1       2.342   0.016  -1.429  0.00  0.00    +0.000 OA
BRANCH  30  31
ATOM     31  C   UNL     1       2.243  -1.187  -0.468  0.00  0.00    +0.000 C 
ATOM     32  C   UNL     1       3.150  -2.205  -1.402  0.00  0.00    +0.000 C 
ATOM     33  C   UNL     1       4.626  -1.563  -1.323  0.00  0.00    +0.000 C 
ATOM     34  N   UNL     1       5.279  -2.627  -2.231  0.00  0.00    +0.000 NA
ATOM     35  C   UNL     1       5.167  -2.299   0.105  0.00  0.00    +0.000 C 
ATOM     36  O   UNL     1       4.846  -3.710  -0.192  0.00  0.00    +0.000 OA
ATOM     37  C   UNL     1       3.881  -1.867   1.141  0.00  0.00    +0.000 C 
ATOM     38  C   UNL     1       2.794  -3.021   0.782  0.00  0.00    +0.000 C 
ATOM     39  O   UNL     1       3.354  -0.688   0.419  0.00  0.00    +0.000 OA
ENDBRANCH  30  31
ENDBRANCH  23  30
TORSDOF 5
