REMARK  Name = 
REMARK  5 active torsions:
REMARK  status: ('A' for Active; 'I' for Inactive)
REMARK    1  A    between atoms: C_2  and  N_4
REMARK    2  A    between atoms: N_4  and  C_5
REMARK    3  A    between atoms: C_15  and  C_17
REMARK    4  A    between atoms: C_21  and  N_22
REMARK    5  A    between atoms: N_22  and  S_23
REMARK                            x       y       z     vdW  Elec       q    Type
REMARK                         _______ _______ _______ _____ _____    ______ ____
ROOT
ATOM      1  C   UNL     1      -4.765   0.780   0.484  0.00  0.00    +0.000 A 
ATOM      2  C   UNL     1      -5.593   1.150   1.521  0.00  0.00    +0.000 A 
ATOM      3  C   UNL     1      -5.851   0.240   2.518  0.00  0.00    +0.000 A 
ATOM      4  C   UNL     1      -5.269  -1.003   2.435  0.00  0.00    +0.000 A 
ATOM      5  N   UNL     1      -4.471  -1.327   1.414  0.00  0.00    +0.000 NA
ATOM      6  C   UNL     1      -4.182  -0.489   0.415  0.00  0.00    +0.000 A 
ATOM      7  N   UNL     1      -3.326  -0.844  -0.674  0.00  0.00    +0.000 N 
ATOM      8  C   UNL     1      -2.115  -0.032  -0.862  0.00  0.00    +0.000 C 
ATOM      9  C   UNL     1      -1.218  -0.729  -1.891  0.00  0.00    +0.000 C 
ATOM     10  N   UNL     1      -1.225  -2.124  -1.567  0.00  0.00    +0.000 N 
ATOM     11  C   UNL     1      -0.056  -2.736  -1.093  0.00  0.00    +0.000 C 
ATOM     12  O   UNL     1      -0.095  -3.969  -0.817  0.00  0.00    +0.000 OA
ATOM     13  C   UNL     1      -2.428  -2.876  -1.732  0.00  0.00    +0.000 C 
ATOM     14  C   UNL     1      -3.599  -1.931  -1.565  0.00  0.00    +0.000 C 
ENDROOT
BRANCH  11  15
ATOM     15  C   UNL     1       1.188  -1.965  -0.921  0.00  0.00    +0.000 A 
ATOM     16  C   UNL     1       1.414  -0.632  -1.168  0.00  0.00    +0.000 A 
ATOM     17  C   UNL     1       2.744  -0.343  -0.860  0.00  0.00    +0.000 A 
ATOM     18  C   UNL     1       3.542   0.766  -0.892  0.00  0.00    +0.000 A 
ATOM     19  C   UNL     1       4.874   0.745  -0.510  0.00  0.00    +0.000 A 
ATOM     20  C   UNL     1       5.394  -0.462  -0.082  0.00  0.00    +0.000 A 
ATOM     21  C   UNL     1       4.614  -1.602  -0.037  0.00  0.00    +0.000 A 
ATOM     22  C   UNL     1       3.293  -1.530  -0.427  0.00  0.00    +0.000 A 
ATOM     23  N   UNL     1       2.330  -2.490  -0.476  0.00  0.00    +0.000 NA
BRANCH  19  24
ATOM     24  N   UNL     1       5.681   1.932  -0.559  0.00  0.00    +0.000 NA
BRANCH  24  25
ATOM     25  S   UNL     1       6.684   2.273   0.784  0.00  0.00    +0.000 S 
ATOM     26  C   UNL     1       5.744   2.508   2.272  0.00  0.00    +0.000 C 
ATOM     27  O   UNL     1       7.613   1.109   0.978  0.00  0.00    +0.000 OA
ATOM     28  O   UNL     1       7.471   3.516   0.529  0.00  0.00    +0.000 OA
ENDBRANCH  24  25
ENDBRANCH  19  24
ENDBRANCH  11  15
BRANCH   1  29
ATOM     29  N   UNL     1      -4.445   1.661  -0.590  0.00  0.00    +0.000 NA
BRANCH  29  31
ATOM     30  C   UNL     1      -4.525   3.697   0.658  0.00  0.00    +0.000 C 
ATOM     31  C   UNL     1      -4.998   2.985  -0.606  0.00  0.00    +0.000 C 
ATOM     32  C   UNL     1      -4.425   3.719  -1.815  0.00  0.00    +0.000 C 
ENDBRANCH  29  31
ENDBRANCH   1  29
TORSDOF 5
