REMARK  Name = 
REMARK  3 active torsions:
REMARK  status: ('A' for Active; 'I' for Inactive)
REMARK    1  A    between atoms: C_11  and  C_12
REMARK    2  A    between atoms: C_11  and  C_17
REMARK    3  A    between atoms: C_13  and  C_14
REMARK                            x       y       z     vdW  Elec       q    Type
REMARK                         _______ _______ _______ _____ _____    ______ ____
ROOT
ATOM      1  O   UNL     1      -0.014   3.533   1.815  0.00  0.00    +0.000 OA
ATOM      2  C   UNL     1      -0.275   2.465   1.195  0.00  0.00    +0.000 C 
ATOM      3  N   UNL     1      -1.580   1.929   1.353  0.00  0.00    +0.000 NA
ATOM      4  C   UNL     1      -1.907   0.706   0.654  0.00  0.00    +0.000 A 
ATOM      5  C   UNL     1      -3.195   0.183   0.814  0.00  0.00    +0.000 A 
ATOM      6  C   UNL     1      -3.562  -0.976   0.174  0.00  0.00    +0.000 A 
ATOM      7  C   UNL     1      -2.613  -1.592  -0.623  0.00  0.00    +0.000 A 
ATOM      8 CL   UNL     1      -3.128  -3.078  -1.426  0.00  0.00    +0.000 Cl
ATOM      9  C   UNL     1      -1.348  -1.090  -0.788  0.00  0.00    +0.000 A 
ATOM     10  C   UNL     1      -0.970   0.099  -0.133  0.00  0.00    +0.000 A 
ATOM     11  C   UNL     1       0.366   0.649  -0.293  0.00  0.00    +0.000 C 
ATOM     12  O   UNL     1       0.603   1.808   0.398  0.00  0.00    +0.000 OA
ENDROOT
BRANCH  11  13
ATOM     13  C   UNL     1       0.581   0.957  -1.781  0.00  0.00    +0.000 C 
ATOM     14  F   UNL     1       0.452  -0.206  -2.484  0.00  0.00    +0.000 F 
ATOM     15  F   UNL     1       1.889   1.405  -1.893  0.00  0.00    +0.000 F 
ATOM     16  F   UNL     1      -0.285   1.947  -2.180  0.00  0.00    +0.000 F 
ENDBRANCH  11  13
BRANCH  11  17
ATOM     17  C   UNL     1       1.311  -0.409   0.128  0.00  0.00    +0.000 C 
ATOM     18  C   UNL     1       2.090  -1.273   0.455  0.00  0.00    +0.000 C 
BRANCH  18  19
ATOM     19  C   UNL     1       3.037  -2.334   0.835  0.00  0.00    +0.000 C 
ATOM     20  C   UNL     1       4.492  -1.978   0.998  0.00  0.00    +0.000 C 
ATOM     21  C   UNL     1       4.056  -2.744  -0.278  0.00  0.00    +0.000 C 
ENDBRANCH  18  19
ENDBRANCH  11  17
TORSDOF 3
