REMARK  Name = 
REMARK  13 active torsions:
REMARK  status: ('A' for Active; 'I' for Inactive)
REMARK    1  A    between atoms: C_2  and  N_5
REMARK    2  A    between atoms: C_6  and  C_8
REMARK    3  A    between atoms: N_17  and  C_18
REMARK    4  A    between atoms: C_18  and  C_19
REMARK    5  A    between atoms: C_19  and  C_21
REMARK    6  A    between atoms: C_21  and  C_22
REMARK    7  A    between atoms: C_21  and  N_29
REMARK    8  A    between atoms: C_22  and  C_23
REMARK    9  A    between atoms: C_30  and  C_32
REMARK   10  A    between atoms: C_32  and  C_33
REMARK   11  A    between atoms: C_32  and  N_37
REMARK   12  A    between atoms: C_33  and  C_34
REMARK   13  A    between atoms: C_38  and  C_40
REMARK                            x       y       z     vdW  Elec       q    Type
REMARK                         _______ _______ _______ _____ _____    ______ ____
ROOT
ATOM      1  C   UNL     1      -1.224  -0.672  -1.813  0.00  0.00    +0.000 C 
ENDROOT
BRANCH   1   2
ATOM      2  N   UNL     1      -0.285   0.460  -2.184  0.00  0.00    +0.000 NA
ATOM      3  C   UNL     1       0.859   0.681  -1.491  0.00  0.00    +0.000 C 
ATOM      4  O   UNL     1       1.065  -0.130  -0.574  0.00  0.00    +0.000 OA
BRANCH   3   5
ATOM      5  C   UNL     1       1.909   1.842  -1.728  0.00  0.00    +0.000 C 
BRANCH   5   6
ATOM      6  N   UNL     1       2.858   1.506  -0.520  0.00  0.00    +0.000 NA
ATOM      7  C   UNL     1       3.606   0.366  -0.497  0.00  0.00    +0.000 C 
ATOM      8  O   UNL     1       3.466  -0.394  -1.519  0.00  0.00    +0.000 OA
BRANCH   7   9
ATOM      9  C   UNL     1       4.497   0.015   0.586  0.00  0.00    +0.000 A 
ATOM     10  C   UNL     1       5.137  -1.200   0.560  0.00  0.00    +0.000 A 
ATOM     11  C   UNL     1       6.021  -1.589   1.548  0.00  0.00    +0.000 A 
ATOM     12  C   UNL     1       6.255  -0.719   2.576  0.00  0.00    +0.000 A 
ATOM     13  C   UNL     1       7.133  -1.073   3.572  0.00  0.00    +0.000 A 
ATOM     14  C   UNL     1       7.358  -0.193   4.585  0.00  0.00    +0.000 A 
ATOM     15  C   UNL     1       6.716   1.034   4.614  0.00  0.00    +0.000 A 
ATOM     16  C   UNL     1       5.827   1.390   3.606  0.00  0.00    +0.000 A 
ATOM     17  C   UNL     1       5.608   0.497   2.591  0.00  0.00    +0.000 A 
ATOM     18  N   UNL     1       4.750   0.837   1.606  0.00  0.00    +0.000 NA
ENDBRANCH   7   9
ENDBRANCH   5   6
BRANCH   5  19
ATOM     19  C   UNL     1       2.788   1.175  -2.921  0.00  0.00    +0.000 C 
BRANCH  19  20
ATOM     20  C   UNL     1       1.979   0.980  -4.107  0.00  0.00    +0.000 C 
ATOM     21  N   UNL     1       0.735   1.611  -4.300  0.00  0.00    +0.000 NA
ATOM     22  O   UNL     1       2.408   0.220  -5.007  0.00  0.00    +0.000 OA
ENDBRANCH  19  20
ENDBRANCH   5  19
ENDBRANCH   3   5
ENDBRANCH   1   2
BRANCH   1  23
ATOM     23  C   UNL     1      -0.745  -0.804  -0.152  0.00  0.00    +0.000 C 
ATOM     24  O   UNL     1      -1.684  -1.932   0.213  0.00  0.00    +0.000 OA
BRANCH  23  25
ATOM     25  C   UNL     1      -1.820   0.346   0.314  0.00  0.00    +0.000 C 
BRANCH  25  35
ATOM     26  C   UNL     1      -2.910  -1.135   1.930  0.00  0.00    +0.000 C 
ATOM     27  C   UNL     1      -3.782  -0.467   3.200  0.00  0.00    +0.000 C 
ATOM     28  C   UNL     1      -2.639  -0.410   4.332  0.00  0.00    +0.000 C 
ATOM     29  C   UNL     1      -3.545   0.240   5.497  0.00  0.00    +0.000 C 
ATOM     30  C   UNL     1      -4.616   1.075   4.984  0.00  0.00    +0.000 C 
ATOM     31  C   UNL     1      -4.016   2.272   4.322  0.00  0.00    +0.000 C 
ATOM     32  C   UNL     1      -3.070   1.865   3.257  0.00  0.00    +0.000 C 
ATOM     33  C   UNL     1      -1.860   1.044   3.943  0.00  0.00    +0.000 C 
ATOM     34  C   UNL     1      -1.197   0.453   2.584  0.00  0.00    +0.000 C 
ATOM     35  N   UNL     1      -2.146   0.207   1.641  0.00  0.00    +0.000 NA
BRANCH  26  37
ATOM     36  N   UNL     1      -4.339   0.184   0.174  0.00  0.00    +0.000 NA
ATOM     37  C   UNL     1      -4.133  -0.932   0.905  0.00  0.00    +0.000 C 
ATOM     38  O   UNL     1      -4.924  -1.895   0.806  0.00  0.00    +0.000 OA
BRANCH  36  40
ATOM     39  C   UNL     1      -5.180   1.851  -1.299  0.00  0.00    +0.000 C 
ATOM     40  C   UNL     1      -5.417   0.449  -0.778  0.00  0.00    +0.000 C 
ATOM     41  C   UNL     1      -6.725   0.490  -0.017  0.00  0.00    +0.000 C 
ATOM     42  C   UNL     1      -5.446  -0.540  -1.899  0.00  0.00    +0.000 C 
ENDBRANCH  36  40
ENDBRANCH  26  37
ENDBRANCH  25  35
ENDBRANCH  23  25
ENDBRANCH   1  23
BRANCH   1  43
ATOM     43  C   UNL     1      -0.479  -1.967  -2.409  0.00  0.00    +0.000 C 
BRANCH  43  44
ATOM     44  C   UNL     1      -0.922  -1.946  -3.807  0.00  0.00    +0.000 A 
ATOM     45  C   UNL     1      -2.131  -2.612  -4.076  0.00  0.00    +0.000 A 
ATOM     46  C   UNL     1      -2.633  -2.658  -5.366  0.00  0.00    +0.000 A 
ATOM     47  C   UNL     1      -1.984  -2.067  -6.418  0.00  0.00    +0.000 A 
ATOM     48  C   UNL     1      -0.798  -1.409  -6.177  0.00  0.00    +0.000 A 
ATOM     49  C   UNL     1      -0.327  -1.382  -4.884  0.00  0.00    +0.000 A 
ENDBRANCH  43  44
ENDBRANCH   1  43
TORSDOF 13
