REMARK  Name = 
REMARK  6 active torsions:
REMARK  status: ('A' for Active; 'I' for Inactive)
REMARK    1  A    between atoms: N_4  and  C_5
REMARK    2  A    between atoms: C_6  and  N_7
REMARK    3  A    between atoms: C_12  and  C_13
REMARK    4  A    between atoms: C_17  and  C_18
REMARK    5  A    between atoms: C_18  and  C_20
REMARK    6  A    between atoms: C_20  and  C_22
REMARK                            x       y       z     vdW  Elec       q    Type
REMARK                         _______ _______ _______ _____ _____    ______ ____
ROOT
ATOM      1  C   UNL     1       0.681  -0.050   0.275  0.00  0.00    +0.000 C 
ATOM      2  C   UNL     1       0.554  -1.091  -1.059  0.00  0.00    +0.000 C 
ATOM      3  C   UNL     1      -0.832  -1.753  -0.769  0.00  0.00    +0.000 C 
ATOM      4  C   UNL     1      -1.746  -1.148  -0.161  0.00  0.00    +0.000 C 
ATOM      5  O   UNL     1      -1.613   0.092   0.284  0.00  0.00    +0.000 OA
ATOM      6  C   UNL     1      -0.572   0.963  -0.376  0.00  0.00    +0.000 C 
ENDROOT
BRANCH   1  10
ATOM      7  C   UNL     1       4.153   1.337  -0.930  0.00  0.00    +0.000 C 
ATOM      8  C   UNL     1       3.105   0.504  -0.296  0.00  0.00    +0.000 C 
ATOM      9  O   UNL     1       3.462  -0.510   0.333  0.00  0.00    +0.000 OA
ATOM     10  N   UNL     1       1.763   0.831  -0.391  0.00  0.00    +0.000 NA
ENDBRANCH   1  10
BRANCH   2  11
ATOM     11  N   UNL     1       1.515  -2.173  -0.456  0.00  0.00    +0.000 NA
ATOM     12  C   UNL     1       1.261  -2.804   0.738  0.00  0.00    +0.000 C 
ATOM     13  N   UNL     1       0.086  -2.666   1.221  0.00  0.00    +0.000 NA
ATOM     14  N   UNL     1       2.204  -3.567   1.433  0.00  0.00    +0.000 NA
ENDBRANCH   2  11
BRANCH   4  15
ATOM     15  C   UNL     1      -3.035  -1.834   0.077  0.00  0.00    +0.000 C 
ATOM     16  O   UNL     1      -3.994  -1.331   0.663  0.00  0.00    +0.000 OA
ATOM     17  O   UNL     1      -3.233  -3.149  -0.373  0.00  0.00    +0.000 OA
ENDBRANCH   4  15
BRANCH   6  18
ATOM     18  C   UNL     1      -0.329   2.047   0.959  0.00  0.00    +0.000 C 
ATOM     19  O   UNL     1      -1.729   2.561   1.034  0.00  0.00    +0.000 OA
BRANCH  18  20
ATOM     20  C   UNL     1       0.309   3.285  -0.070  0.00  0.00    +0.000 C 
ATOM     21  O   UNL     1      -0.034   4.435   0.862  0.00  0.00    +0.000 OA
BRANCH  20  22
ATOM     22  C   UNL     1      -1.019   3.492  -1.012  0.00  0.00    +0.000 C 
ATOM     23  O   UNL     1      -0.959   2.529  -1.989  0.00  0.00    +0.000 OA
ENDBRANCH  20  22
ENDBRANCH  18  20
ENDBRANCH   6  18
TORSDOF 6
