REMARK  Name = 
REMARK  2 active torsions:
REMARK  status: ('A' for Active; 'I' for Inactive)
REMARK    1  A    between atoms: N_5  and  S_6
REMARK    2  A    between atoms: S_6  and  C_9
REMARK                            x       y       z     vdW  Elec       q    Type
REMARK                         _______ _______ _______ _____ _____    ______ ____
ROOT
ATOM      1  S   UNL     1       0.070  -1.944   0.225  0.00  0.00    +0.000 S 
ATOM      2  O   UNL     1       0.264  -2.030   1.713  0.00  0.00    +0.000 OA
ATOM      3  O   UNL     1      -0.228  -3.346  -0.257  0.00  0.00    +0.000 OA
ENDROOT
BRANCH   1   8
ATOM      4  C   UNL     1       4.381   2.711  -0.188  0.00  0.00    +0.000 C 
ATOM      5  C   UNL     1       3.336   1.656  -0.043  0.00  0.00    +0.000 A 
ATOM      6  C   UNL     1       3.217   0.450  -0.697  0.00  0.00    +0.000 A 
ATOM      7  C   UNL     1       2.074  -0.131  -0.183  0.00  0.00    +0.000 A 
ATOM      8  N   UNL     1       1.496  -1.390  -0.522  0.00  0.00    +0.000 NA
ATOM      9  N   UNL     1       1.562   0.722   0.735  0.00  0.00    +0.000 NA
ATOM     10  O   UNL     1       2.332   1.765   0.792  0.00  0.00    +0.000 OA
ENDBRANCH   1   8
BRANCH   1  11
ATOM     11  C   UNL     1      -1.288  -0.900  -0.069  0.00  0.00    +0.000 A 
ATOM     12  C   UNL     1      -2.141  -1.080  -1.158  0.00  0.00    +0.000 A 
ATOM     13  C   UNL     1      -3.179  -0.187  -1.284  0.00  0.00    +0.000 A 
ATOM     14  C   UNL     1      -3.380   0.828  -0.399  0.00  0.00    +0.000 A 
ATOM     15  N   UNL     1      -4.465   1.724  -0.570  0.00  0.00    +0.000 NA
ATOM     16  C   UNL     1      -2.546   1.020   0.682  0.00  0.00    +0.000 A 
ATOM     17  C   UNL     1      -1.504   0.132   0.818  0.00  0.00    +0.000 A 
ENDBRANCH   1  11
TORSDOF 2
