REMARK  Name = 
REMARK  3 active torsions:
REMARK  status: ('A' for Active; 'I' for Inactive)
REMARK    1  A    between atoms: N_4  and  C_5
REMARK    2  A    between atoms: C_7  and  N_8
REMARK    3  A    between atoms: C_11  and  C_12
REMARK                            x       y       z     vdW  Elec       q    Type
REMARK                         _______ _______ _______ _____ _____    ______ ____
ROOT
ATOM      1  C   UNL     1       0.451   0.044  -0.739  0.00  0.00    +0.000 C 
ATOM      2  C   UNL     1       0.981   0.886   0.595  0.00  0.00    +0.000 C 
ATOM      3  C   UNL     1       2.527   0.376   0.516  0.00  0.00    +0.000 C 
ATOM      4  C   UNL     1       2.217  -0.853  -0.658  0.00  0.00    +0.000 C 
ATOM      5  O   UNL     1       0.913  -1.258   0.003  0.00  0.00    +0.000 OA
ENDROOT
BRANCH   1   9
ATOM      6  C   UNL     1      -3.739   2.140   1.101  0.00  0.00    +0.000 C 
ATOM      7  C   UNL     1      -2.993   1.003   0.528  0.00  0.00    +0.000 A 
ATOM      8  C   UNL     1      -1.648   1.050   0.168  0.00  0.00    +0.000 A 
ATOM      9  N   UNL     1      -1.025   0.001  -0.341  0.00  0.00    +0.000 N 
ATOM     10  C   UNL     1      -1.655  -1.143  -0.532  0.00  0.00    +0.000 A 
ATOM     11  O   UNL     1      -1.070  -2.150  -1.018  0.00  0.00    +0.000 OA
ATOM     12  N   UNL     1      -2.999  -1.242  -0.189  0.00  0.00    +0.000 NA
ATOM     13  C   UNL     1      -3.655  -0.176   0.335  0.00  0.00    +0.000 A 
ATOM     14  O   UNL     1      -4.871  -0.334   0.624  0.00  0.00    +0.000 OA
ENDBRANCH   1   9
BRANCH   3  15
ATOM     15  N   UNL     1       2.851   1.429  -0.622  0.00  0.00    +0.000 NA
ATOM     16  N   UNL     1       3.613   2.306  -0.307  0.00  0.00    +0.000 NA
ATOM     17  N   UNL     1       4.547   3.060  -0.389  0.00  0.00    +0.000 NA
ENDBRANCH   3  15
BRANCH   4  18
ATOM     18  C   UNL     1       3.110  -1.992   0.176  0.00  0.00    +0.000 C 
ATOM     19  O   UNL     1       2.446  -3.148  -0.275  0.00  0.00    +0.000 OA
ENDBRANCH   4  18
TORSDOF 3
