REMARK  Name = 
REMARK  4 active torsions:
REMARK  status: ('A' for Active; 'I' for Inactive)
REMARK    1  A    between atoms: C_4  and  N_5
REMARK    2  A    between atoms: N_5  and  C_6
REMARK    3  A    between atoms: N_12  and  C_13
REMARK    4  A    between atoms: C_16  and  C_17
REMARK                            x       y       z     vdW  Elec       q    Type
REMARK                         _______ _______ _______ _____ _____    ______ ____
ROOT
ATOM      1  N   UNL     1      -1.301  -3.473  -0.778  0.00  0.00    +0.000 NA
ATOM      2  C   UNL     1      -1.285  -2.106  -0.391  0.00  0.00    +0.000 A 
ATOM      3  N   UNL     1      -2.331  -1.275  -0.583  0.00  0.00    +0.000 NA
ATOM      4  C   UNL     1      -2.322   0.013  -0.222  0.00  0.00    +0.000 A 
ATOM      5  C   UNL     1      -1.178   0.495   0.374  0.00  0.00    +0.000 A 
ATOM      6  N   UNL     1      -0.840   1.692   0.843  0.00  0.00    +0.000 NA
ATOM      7  C   UNL     1       0.418   1.589   1.323  0.00  0.00    +0.000 A 
ATOM      8  N   UNL     1       0.860   0.367   1.162  0.00  0.00    +0.000 N 
ATOM      9  C   UNL     1      -0.098  -0.337   0.580  0.00  0.00    +0.000 A 
ATOM     10  N   UNL     1      -0.168  -1.628   0.193  0.00  0.00    +0.000 NA
ENDROOT
BRANCH   8  11
ATOM     11  C   UNL     1       2.221  -0.145   1.587  0.00  0.00    +0.000 C 
ATOM     12  C   UNL     1       2.505  -1.058   0.308  0.00  0.00    +0.000 C 
ATOM     13  C   UNL     1       3.720  -0.918  -0.041  0.00  0.00    +0.000 C 
ATOM     14  C   UNL     1       4.416   0.118   0.969  0.00  0.00    +0.000 C 
ATOM     15  C   UNL     1       3.080   1.077   0.938  0.00  0.00    +0.000 C 
BRANCH  14  16
ATOM     16  C   UNL     1       5.130   0.951  -0.257  0.00  0.00    +0.000 C 
ATOM     17  O   UNL     1       5.928   0.011  -0.883  0.00  0.00    +0.000 OA
ENDBRANCH  14  16
ENDBRANCH   8  11
BRANCH   4  18
ATOM     18  N   UNL     1      -3.386   0.902  -0.406  0.00  0.00    +0.000 NA
BRANCH  18  19
ATOM     19  C   UNL     1      -4.643   0.642  -0.986  0.00  0.00    +0.000 C 
ATOM     20  C   UNL     1      -5.571   1.890  -1.014  0.00  0.00    +0.000 C 
ATOM     21  C   UNL     1      -5.156   1.193  -2.237  0.00  0.00    +0.000 C 
ENDBRANCH  18  19
ENDBRANCH   4  18
TORSDOF 4
