REMARK  Name = 
REMARK  10 active torsions:
REMARK  status: ('A' for Active; 'I' for Inactive)
REMARK    1  A    between atoms: C_8  and  C_9
REMARK    2  A    between atoms: N_11  and  C_12
REMARK    3  A    between atoms: C_12  and  C_13
REMARK    4  A    between atoms: C_12  and  C_21
REMARK    5  A    between atoms: C_13  and  S_14
REMARK    6  A    between atoms: S_14  and  C_15
REMARK    7  A    between atoms: C_21  and  C_23
REMARK    8  A    between atoms: C_23  and  N_24
REMARK    9  A    between atoms: C_33  and  C_34
REMARK   10  A    between atoms: N_36  and  C_37
REMARK                            x       y       z     vdW  Elec       q    Type
REMARK                         _______ _______ _______ _____ _____    ______ ____
ROOT
ATOM      1  C   UNL     1       0.963   1.708   0.501  0.00  0.00    +0.000 C 
ENDROOT
BRANCH   1   4
ATOM      2  C   UNL     1       2.711  -0.055   0.503  0.00  0.00    +0.000 C 
ATOM      3  O   UNL     1       3.353   0.731   1.287  0.00  0.00    +0.000 OA
ATOM      4  N   UNL     1       1.430   0.304  -0.008  0.00  0.00    +0.000 NA
BRANCH   2  12
ATOM      5  C   UNL     1       1.492  -1.981  -1.224  0.00  0.00    +0.000 C 
ATOM      6  C   UNL     1       2.822  -2.251  -0.635  0.00  0.00    +0.000 A 
ATOM      7  C   UNL     1       3.450  -3.448  -0.943  0.00  0.00    +0.000 A 
ATOM      8  O   UNL     1       2.848  -4.376  -1.782  0.00  0.00    +0.000 OA
ATOM      9  C   UNL     1       4.685  -3.752  -0.426  0.00  0.00    +0.000 A 
ATOM     10  C   UNL     1       5.259  -2.817   0.402  0.00  0.00    +0.000 A 
ATOM     11  C   UNL     1       4.623  -1.628   0.700  0.00  0.00    +0.000 A 
ATOM     12  C   UNL     1       3.385  -1.304   0.193  0.00  0.00    +0.000 A 
ENDBRANCH   2  12
ENDBRANCH   1   4
BRANCH   1  13
ATOM     13  C   UNL     1      -0.743   1.434   0.436  0.00  0.00    +0.000 C 
ATOM     14  O   UNL     1      -0.744   0.247   1.379  0.00  0.00    +0.000 OA
BRANCH  13  15
ATOM     15  C   UNL     1      -0.767   0.517  -0.928  0.00  0.00    +0.000 C 
BRANCH  15  16
ATOM     16  N   UNL     1      -1.946  -0.165  -0.733  0.00  0.00    +0.000 NA
ATOM     17  C   UNL     1      -2.258  -1.064   0.137  0.00  0.00    +0.000 C 
ATOM     18  C   UNL     1      -2.027  -2.382  -0.785  0.00  0.00    +0.000 C 
ATOM     19  C   UNL     1      -2.260  -3.415   0.437  0.00  0.00    +0.000 C 
ATOM     20  C   UNL     1      -3.417  -4.262   0.231  0.00  0.00    +0.000 C 
ATOM     21  C   UNL     1      -4.662  -3.425   0.544  0.00  0.00    +0.000 C 
ATOM     22  C   UNL     1      -4.472  -2.119  -0.137  0.00  0.00    +0.000 C 
ATOM     23  C   UNL     1      -3.593  -2.447  -1.472  0.00  0.00    +0.000 C 
ATOM     24  C   UNL     1      -3.610  -1.119  -2.300  0.00  0.00    +0.000 C 
ATOM     25  C   UNL     1      -3.050   0.284  -1.754  0.00  0.00    +0.000 C 
BRANCH  25  26
ATOM     26  C   UNL     1      -4.202   0.739  -0.755  0.00  0.00    +0.000 C 
ATOM     27  O   UNL     1      -5.190   1.156  -1.339  0.00  0.00    +0.000 OA
ATOM     28  N   UNL     1      -4.078   0.664   0.606  0.00  0.00    +0.000 NA
BRANCH  28  29
ATOM     29  C   UNL     1      -5.174   1.108   1.441  0.00  0.00    +0.000 C 
ATOM     30  C   UNL     1      -4.886   0.950   2.902  0.00  0.00    +0.000 C 
ATOM     31  C   UNL     1      -5.407   2.581   1.073  0.00  0.00    +0.000 C 
ATOM     32  C   UNL     1      -6.422   0.371   1.029  0.00  0.00    +0.000 C 
ENDBRANCH  28  29
ENDBRANCH  25  26
ENDBRANCH  15  16
ENDBRANCH  13  15
ENDBRANCH   1  13
BRANCH   1  33
ATOM     33  C   UNL     1       0.987   2.451  -0.959  0.00  0.00    +0.000 C 
BRANCH  33  34
ATOM     34  S   UNL     1       2.640   2.374  -1.606  0.00  0.00    +0.000 S 
BRANCH  34  35
ATOM     35  C   UNL     1       3.762   3.340  -0.607  0.00  0.00    +0.000 A 
ATOM     36  C   UNL     1       3.388   4.044   0.509  0.00  0.00    +0.000 A 
ATOM     37  C   UNL     1       4.336   4.764   1.218  0.00  0.00    +0.000 A 
ATOM     38  C   UNL     1       5.656   4.787   0.821  0.00  0.00    +0.000 A 
ATOM     39  C   UNL     1       6.040   4.087  -0.291  0.00  0.00    +0.000 A 
ATOM     40  C   UNL     1       5.078   3.369  -0.993  0.00  0.00    +0.000 A 
ENDBRANCH  34  35
ENDBRANCH  33  34
ENDBRANCH   1  33
TORSDOF 10
