REMARK  Name = 
REMARK  2 active torsions:
REMARK  status: ('A' for Active; 'I' for Inactive)
REMARK    1  A    between atoms: N_10  and  C_11
REMARK    2  A    between atoms: C_14  and  C_15
REMARK                            x       y       z     vdW  Elec       q    Type
REMARK                         _______ _______ _______ _____ _____    ______ ____
ROOT
ATOM      1  O   UNL     1       4.174   0.983   0.528  0.00  0.00    +0.000 OA
ATOM      2  C   UNL     1       3.024   0.499   0.718  0.00  0.00    +0.000 A 
ATOM      3  N   UNL     1       2.646  -0.010   1.902  0.00  0.00    +0.000 NA
ATOM      4  C   UNL     1       1.429  -0.532   2.137  0.00  0.00    +0.000 A 
ATOM      5  N   UNL     1       0.573  -0.520   1.091  0.00  0.00    +0.000 NA
ATOM      6  C   UNL     1       0.876  -0.037  -0.097  0.00  0.00    +0.000 A 
ATOM      7  C   UNL     1       2.115   0.487  -0.314  0.00  0.00    +0.000 A 
ATOM      8  N   UNL     1       2.125   0.899  -1.620  0.00  0.00    +0.000 NA
ATOM      9  C   UNL     1       0.901   0.616  -2.155  0.00  0.00    +0.000 A 
ATOM     10  N   UNL     1       0.198   0.051  -1.178  0.00  0.00    +0.000 N 
ENDROOT
BRANCH  10  11
ATOM     11  C   UNL     1      -1.299  -0.422  -1.428  0.00  0.00    +0.000 C 
ATOM     12  C   UNL     1      -1.219  -1.807  -0.469  0.00  0.00    +0.000 C 
ATOM     13  C   UNL     1      -2.530  -1.752   0.185  0.00  0.00    +0.000 C 
ATOM     14  C   UNL     1      -3.210  -0.422  -0.557  0.00  0.00    +0.000 C 
ATOM     15  O   UNL     1      -1.920   0.400  -0.261  0.00  0.00    +0.000 OA
BRANCH  14  16
ATOM     16  C   UNL     1      -3.939   0.088   0.873  0.00  0.00    +0.000 C 
ATOM     17  O   UNL     1      -3.943   1.479   0.643  0.00  0.00    +0.000 OA
ENDBRANCH  14  16
ENDBRANCH  10  11
TORSDOF 2
