REMARK  Name = 
REMARK  7 active torsions:
REMARK  status: ('A' for Active; 'I' for Inactive)
REMARK    1  A    between atoms: O_2  and  C_3
REMARK    2  A    between atoms: C_8  and  C_9
REMARK    3  A    between atoms: C_9  and  C_10
REMARK    4  A    between atoms: C_20  and  C_21
REMARK    5  A    between atoms: N_25  and  C_26
REMARK    6  A    between atoms: C_26  and  C_27
REMARK    7  A    between atoms: C_26  and  C_29
REMARK                            x       y       z     vdW  Elec       q    Type
REMARK                         _______ _______ _______ _____ _____    ______ ____
ROOT
ATOM      1  C   UNL     1       0.568   0.463   1.193  0.00  0.00    +0.000 A 
ATOM      2  C   UNL     1      -0.546   1.002   0.526  0.00  0.00    +0.000 A 
ATOM      3  C   UNL     1      -1.305   0.343  -0.373  0.00  0.00    +0.000 A 
ATOM      4  C   UNL     1      -0.990  -0.962  -0.684  0.00  0.00    +0.000 A 
ATOM      5  C   UNL     1       0.092  -1.533  -0.058  0.00  0.00    +0.000 A 
ATOM      6  C   UNL     1       0.881  -0.827   0.884  0.00  0.00    +0.000 A 
ATOM      7  C   UNL     1      -1.754  -1.667  -1.611  0.00  0.00    +0.000 A 
ATOM      8  O   UNL     1      -1.475  -2.858  -1.901  0.00  0.00    +0.000 OA
ATOM      9  C   UNL     1      -2.833  -1.069  -2.228  0.00  0.00    +0.000 A 
ATOM     10  C   UNL     1      -3.108   0.237  -1.885  0.00  0.00    +0.000 A 
ATOM     11  N   UNL     1      -2.323   0.877  -0.968  0.00  0.00    +0.000 N 
ENDROOT
BRANCH   9  12
ATOM     12  C   UNL     1      -3.637  -1.793  -3.199  0.00  0.00    +0.000 C 
ATOM     13  O   UNL     1      -4.625  -1.293  -3.790  0.00  0.00    +0.000 OA
ATOM     14  O   UNL     1      -3.335  -3.112  -3.527  0.00  0.00    +0.000 OA
ENDBRANCH   9  12
BRANCH   1  16
ATOM     15  C   UNL     1       0.995   2.549   2.451  0.00  0.00    +0.000 C 
ATOM     16  O   UNL     1       1.275   1.229   2.103  0.00  0.00    +0.000 OA
ENDBRANCH   1  16
BRANCH   6  17
ATOM     17  C   UNL     1       2.041  -1.500   1.474  0.00  0.00    +0.000 C 
BRANCH  17  18
ATOM     18  C   UNL     1       3.346  -1.303   0.890  0.00  0.00    +0.000 A 
ATOM     19  C   UNL     1       3.694  -2.280  -0.070  0.00  0.00    +0.000 A 
ATOM     20  C   UNL     1       4.864  -2.233  -0.758  0.00  0.00    +0.000 A 
ATOM     21  C   UNL     1       5.776  -1.213  -0.543  0.00  0.00    +0.000 A 
ATOM     22  C   UNL     1       5.463  -0.238   0.396  0.00  0.00    +0.000 A 
ATOM     23 CL   UNL     1       6.590   1.064   0.696  0.00  0.00    +0.000 Cl
ATOM     24  C   UNL     1       4.257  -0.316   1.083  0.00  0.00    +0.000 A 
ATOM     25  F   UNL     1       4.043   0.632   1.994  0.00  0.00    +0.000 F 
ENDBRANCH  17  18
ENDBRANCH   6  17
BRANCH  11  26
ATOM     26  C   UNL     1      -2.771   2.349  -0.691  0.00  0.00    +0.000 C 
BRANCH  26  27
ATOM     27  C   UNL     1      -3.881   1.957   0.462  0.00  0.00    +0.000 C 
ATOM     28  C   UNL     1      -3.224   1.271   1.571  0.00  0.00    +0.000 C 
ATOM     29  C   UNL     1      -4.408   3.295   0.978  0.00  0.00    +0.000 C 
ENDBRANCH  26  27
BRANCH  26  30
ATOM     30  C   UNL     1      -1.629   2.801   0.390  0.00  0.00    +0.000 C 
ATOM     31  O   UNL     1      -2.041   4.125   0.632  0.00  0.00    +0.000 OA
ENDBRANCH  26  30
ENDBRANCH  11  26
TORSDOF 7
