REMARK  Name = 
REMARK  15 active torsions:
REMARK  status: ('A' for Active; 'I' for Inactive)
REMARK    1  A    between atoms: C_8  and  O_9
REMARK    2  A    between atoms: O_9  and  C_10
REMARK    3  A    between atoms: C_10  and  C_11
REMARK    4  A    between atoms: N_13  and  C_14
REMARK    5  A    between atoms: C_14  and  C_15
REMARK    6  A    between atoms: C_14  and  C_22
REMARK    7  A    between atoms: C_15  and  C_16
REMARK    8  A    between atoms: C_22  and  C_24
REMARK    9  A    between atoms: C_24  and  C_25
REMARK   10  A    between atoms: C_25  and  C_26
REMARK   11  A    between atoms: C_25  and  N_33
REMARK   12  A    between atoms: C_26  and  C_27
REMARK   13  A    between atoms: C_34  and  C_36
REMARK   14  A    between atoms: C_36  and  C_37
REMARK   15  A    between atoms: C_36  and  N_40
REMARK                            x       y       z     vdW  Elec       q    Type
REMARK                         _______ _______ _______ _____ _____    ______ ____
ROOT
ATOM      1  C   UNL     1       0.838  -0.643  -0.143  0.00  0.00    +0.000 C 
ATOM      2  O   UNL     1      -0.049  -1.824  -0.357  0.00  0.00    +0.000 OA
ENDROOT
BRANCH   1   3
ATOM      3  C   UNL     1       1.650  -1.405   1.109  0.00  0.00    +0.000 C 
BRANCH   3   6
ATOM      4  C   UNL     1       3.465  -0.002   0.270  0.00  0.00    +0.000 C 
ATOM      5  O   UNL     1       3.380  -0.723  -0.756  0.00  0.00    +0.000 OA
ATOM      6  N   UNL     1       2.585  -0.227   1.412  0.00  0.00    +0.000 NA
BRANCH   4   7
ATOM      7  C   UNL     1       4.457   1.047   0.269  0.00  0.00    +0.000 C 
BRANCH   7   8
ATOM      8  O   UNL     1       5.239   1.353  -0.775  0.00  0.00    +0.000 OA
BRANCH   8  16
ATOM      9  C   UNL     1       4.537   0.305  -3.421  0.00  0.00    +0.000 C 
ATOM     10  C   UNL     1       5.880   0.255  -2.818  0.00  0.00    +0.000 A 
ATOM     11  C   UNL     1       6.867  -0.332  -3.617  0.00  0.00    +0.000 A 
ATOM     12  C   UNL     1       8.150  -0.397  -3.189  0.00  0.00    +0.000 A 
ATOM     13  C   UNL     1       8.466   0.118  -1.969  0.00  0.00    +0.000 A 
ATOM     14  C   UNL     1       7.503   0.688  -1.194  0.00  0.00    +0.000 A 
ATOM     15  C   UNL     1       7.854   1.241   0.121  0.00  0.00    +0.000 C 
ATOM     16  C   UNL     1       6.149   0.785  -1.583  0.00  0.00    +0.000 A 
ENDBRANCH   8  16
ENDBRANCH   7   8
ENDBRANCH   4   7
ENDBRANCH   3   6
BRANCH   3  17
ATOM     17  C   UNL     1       0.618  -1.247   2.321  0.00  0.00    +0.000 C 
BRANCH  17  18
ATOM     18  C   UNL     1       1.357  -1.372   3.586  0.00  0.00    +0.000 A 
ATOM     19  C   UNL     1       1.535  -2.564   4.228  0.00  0.00    +0.000 A 
ATOM     20  C   UNL     1       2.244  -2.579   5.410  0.00  0.00    +0.000 A 
ATOM     21  C   UNL     1       2.778  -1.426   5.958  0.00  0.00    +0.000 A 
ATOM     22  C   UNL     1       2.593  -0.234   5.306  0.00  0.00    +0.000 A 
ATOM     23  C   UNL     1       1.886  -0.221   4.129  0.00  0.00    +0.000 A 
ENDBRANCH  17  18
ENDBRANCH   3  17
ENDBRANCH   1   3
BRANCH   1  24
ATOM     24  C   UNL     1      -0.228   0.259   0.677  0.00  0.00    +0.000 C 
BRANCH  24  25
ATOM     25  C   UNL     1      -0.923   0.920  -0.696  0.00  0.00    +0.000 C 
BRANCH  25  26
ATOM     26  N   UNL     1      -1.736  -0.356  -0.921  0.00  0.00    +0.000 NA
ATOM     27  C   UNL     1      -2.795  -0.704  -0.149  0.00  0.00    +0.000 C 
ATOM     28  O   UNL     1      -3.091   0.103   0.729  0.00  0.00    +0.000 OA
BRANCH  27  29
ATOM     29  C   UNL     1      -3.606  -2.048  -0.335  0.00  0.00    +0.000 C 
BRANCH  29  30
ATOM     30  N   UNL     1      -4.879  -1.651   0.392  0.00  0.00    +0.000 N 
ATOM     31  C   UNL     1      -4.776  -0.949   1.648  0.00  0.00    +0.000 C 
ATOM     32  C   UNL     1      -5.959  -0.228   2.093  0.00  0.00    +0.000 C 
ATOM     33  C   UNL     1      -7.095  -0.070   1.148  0.00  0.00    +0.000 C 
ATOM     34  N   UNL     1      -7.273  -1.294   0.347  0.00  0.00    +0.000 NA
ATOM     35  C   UNL     1      -6.140  -1.987  -0.167  0.00  0.00    +0.000 C 
ATOM     36  O   UNL     1      -6.313  -2.840  -1.068  0.00  0.00    +0.000 OA
ENDBRANCH  29  30
BRANCH  29  37
ATOM     37  C   UNL     1      -4.058  -1.903  -1.838  0.00  0.00    +0.000 C 
ATOM     38  C   UNL     1      -4.893  -0.769  -2.132  0.00  0.00    +0.000 C 
ATOM     39  C   UNL     1      -4.048  -3.119  -2.611  0.00  0.00    +0.000 C 
ENDBRANCH  29  37
ENDBRANCH  27  29
ENDBRANCH  25  26
BRANCH  25  40
ATOM     40  C   UNL     1      -1.976   1.808   0.102  0.00  0.00    +0.000 C 
BRANCH  40  41
ATOM     41  C   UNL     1      -2.704   2.597  -0.925  0.00  0.00    +0.000 A 
ATOM     42  C   UNL     1      -3.873   2.244  -1.516  0.00  0.00    +0.000 A 
ATOM     43  C   UNL     1      -4.558   2.967  -2.472  0.00  0.00    +0.000 A 
ATOM     44  C   UNL     1      -4.037   4.177  -2.900  0.00  0.00    +0.000 A 
ATOM     45  C   UNL     1      -2.836   4.593  -2.327  0.00  0.00    +0.000 A 
ATOM     46  C   UNL     1      -2.189   3.836  -1.375  0.00  0.00    +0.000 A 
ENDBRANCH  40  41
ENDBRANCH  25  40
ENDBRANCH  24  25
ENDBRANCH   1  24
TORSDOF 15
