REMARK  Name = 
REMARK  12 active torsions:
REMARK  status: ('A' for Active; 'I' for Inactive)
REMARK    1  A    between atoms: C_14  and  N_15
REMARK    2  A    between atoms: N_15  and  C_16
REMARK    3  A    between atoms: C_16  and  C_17
REMARK    4  A    between atoms: C_17  and  N_18
REMARK    5  A    between atoms: N_18  and  C_19
REMARK    6  A    between atoms: C_19  and  C_20
REMARK    7  A    between atoms: C_24  and  N_25
REMARK    8  A    between atoms: N_25  and  C_26
REMARK    9  A    between atoms: C_26  and  C_27
REMARK   10  A    between atoms: C_27  and  N_28
REMARK   11  A    between atoms: N_28  and  C_29
REMARK   12  A    between atoms: C_29  and  C_30
REMARK                            x       y       z     vdW  Elec       q    Type
REMARK                         _______ _______ _______ _____ _____    ______ ____
ROOT
ATOM      1  O   UNL     1      -2.226  -2.438  -0.331  0.00  0.00    +0.000 OA
ATOM      2  C   UNL     1      -1.055  -2.024  -0.168  0.00  0.00    +0.000 C 
ATOM      3  C   UNL     1       0.044  -3.002   0.105  0.00  0.00    +0.000 A 
ATOM      4  C   UNL     1      -0.263  -4.326   0.195  0.00  0.00    +0.000 A 
ATOM      5  O   UNL     1      -1.526  -4.832   0.027  0.00  0.00    +0.000 OA
ATOM      6  C   UNL     1       0.790  -5.179   0.473  0.00  0.00    +0.000 A 
ATOM      7  C   UNL     1       2.066  -4.720   0.647  0.00  0.00    +0.000 A 
ATOM      8  C   UNL     1       2.350  -3.400   0.560  0.00  0.00    +0.000 A 
ATOM      9  O   UNL     1       3.640  -2.962   0.749  0.00  0.00    +0.000 OA
ATOM     10  C   UNL     1       1.315  -2.538   0.284  0.00  0.00    +0.000 A 
ATOM     11  C   UNL     1       1.671  -1.118   0.211  0.00  0.00    +0.000 C 
ATOM     12  O   UNL     1       2.846  -0.713   0.381  0.00  0.00    +0.000 OA
ATOM     13  C   UNL     1       0.562  -0.201  -0.062  0.00  0.00    +0.000 A 
ATOM     14  C   UNL     1       0.911   1.176  -0.131  0.00  0.00    +0.000 A 
ATOM     15  C   UNL     1      -0.120   2.050  -0.377  0.00  0.00    +0.000 A 
ATOM     16  C   UNL     1      -1.413   1.597  -0.547  0.00  0.00    +0.000 A 
ATOM     17  C   UNL     1      -1.786   0.278  -0.492  0.00  0.00    +0.000 A 
ATOM     18  C   UNL     1      -0.721  -0.611  -0.237  0.00  0.00    +0.000 A 
ENDROOT
BRANCH  14  19
ATOM     19  N   UNL     1       2.184   1.551  -0.008  0.00  0.00    +0.000 NA
BRANCH  19  20
ATOM     20  C   UNL     1       3.407   1.912   0.111  0.00  0.00    +0.000 C 
BRANCH  20  21
ATOM     21  C   UNL     1       4.188   2.383  -1.081  0.00  0.00    +0.000 C 
BRANCH  21  22
ATOM     22  N   UNL     1       5.566   2.696  -0.720  0.00  0.00    +0.000 NA
BRANCH  22  23
ATOM     23  C   UNL     1       5.604   3.866   0.143  0.00  0.00    +0.000 C 
BRANCH  23  24
ATOM     24  C   UNL     1       5.161   5.095  -0.646  0.00  0.00    +0.000 C 
ATOM     25  O   UNL     1       3.833   4.816  -1.105  0.00  0.00    +0.000 OA
ENDBRANCH  23  24
ENDBRANCH  22  23
ENDBRANCH  21  22
ENDBRANCH  20  21
ENDBRANCH  19  20
ENDBRANCH  14  19
BRANCH  17  26
ATOM     26  N   UNL     1      -3.047  -0.266  -0.705  0.00  0.00    +0.000 NA
BRANCH  26  27
ATOM     27  C   UNL     1      -4.334  -0.013  -0.817  0.00  0.00    +0.000 C 
BRANCH  27  28
ATOM     28  C   UNL     1      -5.051   1.048  -1.464  0.00  0.00    +0.000 C 
BRANCH  28  29
ATOM     29  N   UNL     1      -4.791   2.317  -0.816  0.00  0.00    +0.000 NA
BRANCH  29  30
ATOM     30  C   UNL     1      -5.426   2.220   0.555  0.00  0.00    +0.000 C 
BRANCH  30  31
ATOM     31  C   UNL     1      -6.910   2.114   0.386  0.00  0.00    +0.000 C 
ATOM     32  O   UNL     1      -7.469   3.225  -0.256  0.00  0.00    +0.000 OA
ENDBRANCH  30  31
ENDBRANCH  29  30
ENDBRANCH  28  29
ENDBRANCH  27  28
ENDBRANCH  26  27
ENDBRANCH  17  26
TORSDOF 12
