REMARK  Name = 
REMARK  1 active torsions:
REMARK  status: ('A' for Active; 'I' for Inactive)
REMARK    1  A    between atoms: N_17  and  C_18
REMARK                            x       y       z     vdW  Elec       q    Type
REMARK                         _______ _______ _______ _____ _____    ______ ____
ROOT
ATOM      1  C   UNL     1       3.555   2.442  -0.127  0.00  0.00    +0.000 C 
ATOM      2  C   UNL     1       3.044   1.057  -0.129  0.00  0.00    +0.000 A 
ATOM      3  C   UNL     1       3.959   0.024  -0.141  0.00  0.00    +0.000 A 
ATOM      4  C   UNL     1       3.458  -1.260  -0.142  0.00  0.00    +0.000 A 
ATOM      5  N   UNL     1       2.143  -1.479  -0.132  0.00  0.00    +0.000 NA
ATOM      6  C   UNL     1       1.218  -0.510  -0.120  0.00  0.00    +0.000 A 
ATOM      7  C   UNL     1       1.668   0.794  -0.119  0.00  0.00    +0.000 A 
ATOM      8  N   UNL     1       0.916   2.008  -0.107  0.00  0.00    +0.000 NA
ATOM      9  C   UNL     1      -0.516   2.098  -0.122  0.00  0.00    +0.000 C 
ATOM     10  O   UNL     1      -1.020   3.240  -0.362  0.00  0.00    +0.000 OA
ATOM     11  C   UNL     1      -1.530   1.070   0.099  0.00  0.00    +0.000 A 
ATOM     12  C   UNL     1      -2.797   1.563   0.326  0.00  0.00    +0.000 A 
ATOM     13  C   UNL     1      -3.877   0.707   0.555  0.00  0.00    +0.000 A 
ATOM     14  C   UNL     1      -3.632  -0.649   0.546  0.00  0.00    +0.000 A 
ATOM     15  N   UNL     1      -2.391  -1.131   0.324  0.00  0.00    +0.000 NA
ATOM     16  C   UNL     1      -1.349  -0.296   0.103  0.00  0.00    +0.000 A 
ATOM     17  N   UNL     1      -0.114  -1.007  -0.112  0.00  0.00    +0.000 N 
ENDROOT
BRANCH  17  18
ATOM     18  C   UNL     1      -0.235  -2.411  -0.350  0.00  0.00    +0.000 C 
ATOM     19  C   UNL     1      -0.834  -3.345   0.600  0.00  0.00    +0.000 C 
ATOM     20  C   UNL     1      -1.665  -2.916  -0.590  0.00  0.00    +0.000 C 
ENDBRANCH  17  18
TORSDOF 1
