REMARK  Name = 
REMARK  12 active torsions:
REMARK  status: ('A' for Active; 'I' for Inactive)
REMARK    1  A    between atoms: C_2  and  C_3
REMARK    2  A    between atoms: C_3  and  C_4
REMARK    3  A    between atoms: C_4  and  C_5
REMARK    4  A    between atoms: C_5  and  C_6
REMARK    5  A    between atoms: C_6  and  C_7
REMARK    6  A    between atoms: C_16  and  C_17
REMARK    7  A    between atoms: C_17  and  C_18
REMARK    8  A    between atoms: C_17  and  C_20
REMARK    9  A    between atoms: C_24  and  N_25
REMARK   10  A    between atoms: N_25  and  S_26
REMARK   11  A    between atoms: S_26  and  C_29
REMARK   12  A    between atoms: C_32  and  C_33
REMARK                            x       y       z     vdW  Elec       q    Type
REMARK                         _______ _______ _______ _____ _____    ______ ____
ROOT
ATOM      1  C   UNL     1       0.867  -3.253   0.836  0.00  0.00    +0.000 C 
ENDROOT
BRANCH   1   6
ATOM      2  C   UNL     1       4.336  -0.711  -0.149  0.00  0.00    +0.000 C 
ATOM      3  C   UNL     1       3.501  -1.244  -1.266  0.00  0.00    +0.000 C 
ATOM      4  C   UNL     1       2.393  -2.142  -0.845  0.00  0.00    +0.000 C 
ATOM      5  O   UNL     1       1.765  -2.802  -1.903  0.00  0.00    +0.000 OA
ATOM      6  C   UNL     1       1.998  -2.330   0.365  0.00  0.00    +0.000 C 
ATOM      7  C   UNL     1       2.641  -1.512   1.398  0.00  0.00    +0.000 C 
ATOM      8  O   UNL     1       2.368  -1.567   2.604  0.00  0.00    +0.000 OA
ATOM      9  O   UNL     1       3.646  -0.578   1.047  0.00  0.00    +0.000 OA
BRANCH   2  10
ATOM     10  C   UNL     1       5.586  -1.529  -0.095  0.00  0.00    +0.000 C 
BRANCH  10  12
ATOM     11  C   UNL     1       4.954  -3.200   1.668  0.00  0.00    +0.000 C 
ATOM     12  C   UNL     1       5.471  -2.947   0.306  0.00  0.00    +0.000 C 
ENDBRANCH  10  12
ENDBRANCH   2  10
BRANCH   2  13
ATOM     13  C   UNL     1       4.767   0.705  -0.577  0.00  0.00    +0.000 C 
BRANCH  13  14
ATOM     14  C   UNL     1       5.753   1.202   0.485  0.00  0.00    +0.000 C 
BRANCH  14  15
ATOM     15  C   UNL     1       6.217   2.536   0.071  0.00  0.00    +0.000 A 
ATOM     16  C   UNL     1       7.349   2.632  -0.721  0.00  0.00    +0.000 A 
ATOM     17  C   UNL     1       7.851   3.828  -1.141  0.00  0.00    +0.000 A 
ATOM     18  C   UNL     1       7.172   4.982  -0.739  0.00  0.00    +0.000 A 
ATOM     19  C   UNL     1       6.042   4.929   0.049  0.00  0.00    +0.000 A 
ATOM     20  C   UNL     1       5.571   3.690   0.449  0.00  0.00    +0.000 A 
ENDBRANCH  14  15
ENDBRANCH  13  14
ENDBRANCH   2  13
ENDBRANCH   1   6
BRANCH   1  21
ATOM     21  C   UNL     1      -0.351  -2.258   0.806  0.00  0.00    +0.000 A 
ATOM     22  C   UNL     1      -0.580  -1.536   1.961  0.00  0.00    +0.000 A 
ATOM     23  C   UNL     1      -1.659  -0.656   1.959  0.00  0.00    +0.000 A 
ATOM     24  C   UNL     1      -2.449  -0.551   0.797  0.00  0.00    +0.000 A 
ATOM     25  C   UNL     1      -2.176  -1.286  -0.312  0.00  0.00    +0.000 A 
ATOM     26  C   UNL     1      -1.110  -2.163  -0.325  0.00  0.00    +0.000 A 
BRANCH  25  27
ATOM     27  N   UNL     1      -2.960  -1.175  -1.468  0.00  0.00    +0.000 NA
BRANCH  27  28
ATOM     28  S   UNL     1      -4.622  -1.157  -1.671  0.00  0.00    +0.000 S 
ATOM     29  O   UNL     1      -4.901  -1.060  -3.168  0.00  0.00    +0.000 OA
ATOM     30  O   UNL     1      -5.307  -2.435  -1.219  0.00  0.00    +0.000 OA
BRANCH  28  31
ATOM     31  C   UNL     1      -5.404   0.197  -0.863  0.00  0.00    +0.000 A 
ATOM     32  C   UNL     1      -4.687   1.143  -0.139  0.00  0.00    +0.000 A 
ATOM     33  C   UNL     1      -5.333   2.196   0.472  0.00  0.00    +0.000 A 
ATOM     34  C   UNL     1      -6.692   2.364   0.401  0.00  0.00    +0.000 A 
ATOM     35  C   UNL     1      -7.377   1.392  -0.336  0.00  0.00    +0.000 A 
ATOM     36  N   UNL     1      -6.732   0.374  -0.924  0.00  0.00    +0.000 NA
BRANCH  34  37
ATOM     37  C   UNL     1      -7.419   3.493   1.045  0.00  0.00    +0.000 C 
ATOM     38  F   UNL     1      -8.748   3.451   0.668  0.00  0.00    +0.000 F 
ATOM     39  F   UNL     1      -6.938   4.723   0.649  0.00  0.00    +0.000 F 
ATOM     40  F   UNL     1      -7.310   3.423   2.423  0.00  0.00    +0.000 F 
ENDBRANCH  34  37
ENDBRANCH  28  31
ENDBRANCH  27  28
ENDBRANCH  25  27
ENDBRANCH   1  21
BRANCH   1  41
ATOM     41  C   UNL     1       0.606  -4.194  -0.414  0.00  0.00    +0.000 C 
ATOM     42  C   UNL     1       1.902  -4.973  -0.637  0.00  0.00    +0.000 C 
ENDBRANCH   1  41
TORSDOF 12
