REMARK  Name = 
REMARK  7 active torsions:
REMARK  status: ('A' for Active; 'I' for Inactive)
REMARK    1  A    between atoms: C_2  and  C_3
REMARK    2  A    between atoms: C_3  and  C_4
REMARK    3  A    between atoms: C_3  and  C_6
REMARK    4  A    between atoms: C_6  and  N_7
REMARK    5  A    between atoms: C_6  and  C_11
REMARK    6  A    between atoms: C_14  and  C_15
REMARK    7  A    between atoms: C_19  and  N_20
REMARK                            x       y       z     vdW  Elec       q    Type
REMARK                         _______ _______ _______ _____ _____    ______ ____
ROOT
ATOM      1  C   UNL     1      -0.101  -0.374   0.196  0.00  0.00    +0.000 C 
ATOM      2  C   UNL     1      -0.518  -1.840  -0.455  0.00  0.00    +0.000 C 
ATOM      3  O   UNL     1      -0.478  -1.396  -1.899  0.00  0.00    +0.000 OA
ATOM      4  C   UNL     1      -2.195  -1.655  -0.385  0.00  0.00    +0.000 C 
ATOM      5  C   UNL     1      -2.262  -0.365   0.573  0.00  0.00    +0.000 C 
ATOM      6  C   UNL     1      -1.369   0.396  -0.601  0.00  0.00    +0.000 C 
ENDROOT
BRANCH   6   7
ATOM      7  N   UNL     1      -1.218   1.709   0.254  0.00  0.00    +0.000 NA
ATOM      8  C   UNL     1      -2.194   2.638  -0.189  0.00  0.00    +0.000 C 
ATOM      9  N   UNL     1      -3.357   2.225  -0.541  0.00  0.00    +0.000 NA
ATOM     10  N   UNL     1      -1.938   4.035  -0.257  0.00  0.00    +0.000 NA
ENDBRANCH   6   7
BRANCH   4  11
ATOM     11  C   UNL     1      -2.415  -2.726   0.741  0.00  0.00    +0.000 C 
ATOM     12  O   UNL     1      -1.442  -3.351   1.161  0.00  0.00    +0.000 OA
ATOM     13  O   UNL     1      -3.686  -2.932   1.221  0.00  0.00    +0.000 OA
ENDBRANCH   4  11
BRANCH   1  14
ATOM     14  C   UNL     1       1.111   0.114  -0.851  0.00  0.00    +0.000 C 
BRANCH  14  15
ATOM     15  N   UNL     1       1.786   1.044   0.247  0.00  0.00    +0.000 NA
ATOM     16  C   UNL     1       1.834   2.403  -0.088  0.00  0.00    +0.000 C 
ATOM     17  C   UNL     1       2.444   3.345   0.873  0.00  0.00    +0.000 C 
ATOM     18  O   UNL     1       1.381   2.826  -1.159  0.00  0.00    +0.000 OA
ENDBRANCH  14  15
BRANCH  14  19
ATOM     19  C   UNL     1       2.131  -1.133  -0.599  0.00  0.00    +0.000 C 
BRANCH  19  21
ATOM     20  C   UNL     1       2.809  -2.843   0.953  0.00  0.00    +0.000 C 
ATOM     21  C   UNL     1       2.041  -1.591   0.767  0.00  0.00    +0.000 C 
ENDBRANCH  19  21
BRANCH  19  22
ATOM     22  C   UNL     1       3.422  -0.805  -1.205  0.00  0.00    +0.000 C 
ATOM     23  C   UNL     1       4.214   0.276  -0.560  0.00  0.00    +0.000 C 
ENDBRANCH  19  22
ENDBRANCH  14  19
ENDBRANCH   1  14
TORSDOF 7
