REMARK  Name = 
REMARK  6 active torsions:
REMARK  status: ('A' for Active; 'I' for Inactive)
REMARK    1  A    between atoms: C_5  and  C_6
REMARK    2  A    between atoms: N_8  and  C_9
REMARK    3  A    between atoms: C_9  and  C_12
REMARK    4  A    between atoms: C_14  and  C_15
REMARK    5  A    between atoms: N_17  and  C_18
REMARK    6  A    between atoms: C_18  and  C_19
REMARK                            x       y       z     vdW  Elec       q    Type
REMARK                         _______ _______ _______ _____ _____    ______ ____
ROOT
ATOM      1  C   UNL     1      -0.828   0.198   1.451  0.00  0.00    +0.000 A 
ATOM      2  N   UNL     1       0.052  -0.202   0.523  0.00  0.00    +0.000 NA
ATOM      3  C   UNL     1       0.936   0.667  -0.073  0.00  0.00    +0.000 A 
ATOM      4  C   UNL     1       0.920   1.980   0.317  0.00  0.00    +0.000 A 
ATOM      5  O   UNL     1       1.834   2.870  -0.292  0.00  0.00    +0.000 OA
ATOM      6  C   UNL     1       0.044   2.424   1.260  0.00  0.00    +0.000 A 
ATOM      7  O   UNL     1      -0.011   3.597   1.630  0.00  0.00    +0.000 OA
ATOM      8  N   UNL     1      -0.804   1.514   1.792  0.00  0.00    +0.000 N 
ATOM      9  C   UNL     1      -1.758   2.015   2.769  0.00  0.00    +0.000 C 
ENDROOT
BRANCH   1  10
ATOM     10  C   UNL     1      -1.804  -0.734   2.086  0.00  0.00    +0.000 C 
ATOM     11  C   UNL     1      -1.374  -2.149   1.822  0.00  0.00    +0.000 C 
ATOM     12  C   UNL     1      -1.811  -0.494   3.563  0.00  0.00    +0.000 C 
BRANCH  10  15
ATOM     13  C   UNL     1      -4.330  -0.922   1.761  0.00  0.00    +0.000 C 
ATOM     14  O   UNL     1      -4.469  -1.850   2.564  0.00  0.00    +0.000 OA
ATOM     15  N   UNL     1      -3.070  -0.368   1.510  0.00  0.00    +0.000 NA
BRANCH  13  20
ATOM     16  C   UNL     1      -6.841   1.870  -1.513  0.00  0.00    +0.000 C 
ATOM     17  C   UNL     1      -6.568   0.874  -0.413  0.00  0.00    +0.000 A 
ATOM     18  N   UNL     1      -7.471   0.118   0.288  0.00  0.00    +0.000 NA
ATOM     19  N   UNL     1      -6.782  -0.617   1.152  0.00  0.00    +0.000 NA
ATOM     20  C   UNL     1      -5.502  -0.354   1.026  0.00  0.00    +0.000 A 
ATOM     21  O   UNL     1      -5.424   0.546   0.081  0.00  0.00    +0.000 OA
ENDBRANCH  13  20
ENDBRANCH  10  15
ENDBRANCH   1  10
BRANCH   3  22
ATOM     22  C   UNL     1       1.777   0.190  -1.147  0.00  0.00    +0.000 C 
ATOM     23  O   UNL     1       1.741  -1.068  -1.673  0.00  0.00    +0.000 OA
ATOM     24  N   UNL     1       2.661   1.020  -1.715  0.00  0.00    +0.000 NA
BRANCH  24  25
ATOM     25  C   UNL     1       3.480   0.525  -2.767  0.00  0.00    +0.000 C 
BRANCH  25  26
ATOM     26  C   UNL     1       4.797   0.001  -2.508  0.00  0.00    +0.000 A 
ATOM     27  C   UNL     1       5.036  -1.223  -1.915  0.00  0.00    +0.000 A 
ATOM     28  C   UNL     1       6.321  -1.699  -1.738  0.00  0.00    +0.000 A 
ATOM     29  C   UNL     1       7.412  -0.957  -2.151  0.00  0.00    +0.000 A 
ATOM     30  F   UNL     1       8.692  -1.353  -2.023  0.00  0.00    +0.000 F 
ATOM     31  C   UNL     1       7.207   0.285  -2.757  0.00  0.00    +0.000 A 
ATOM     32  C   UNL     1       5.935   0.716  -2.909  0.00  0.00    +0.000 A 
ENDBRANCH  25  26
ENDBRANCH  24  25
ENDBRANCH   3  22
TORSDOF 6
