REMARK  Name = 
REMARK  8 active torsions:
REMARK  status: ('A' for Active; 'I' for Inactive)
REMARK    1  A    between atoms: C_2  and  O_3
REMARK    2  A    between atoms: O_3  and  C_4
REMARK    3  A    between atoms: C_4  and  C_6
REMARK    4  A    between atoms: C_8  and  O_9
REMARK    5  A    between atoms: O_9  and  C_10
REMARK    6  A    between atoms: C_10  and  C_11
REMARK    7  A    between atoms: C_10  and  C_13
REMARK    8  A    between atoms: C_15  and  N_16
REMARK                            x       y       z     vdW  Elec       q    Type
REMARK                         _______ _______ _______ _____ _____    ______ ____
ROOT
ATOM      1  C   UNL     1       1.188  -0.348   0.145  0.00  0.00    +0.000 C 
ATOM      2  C   UNL     1       0.393   0.566   0.244  0.00  0.00    +0.000 C 
ATOM      3  C   UNL     1      -1.150   0.553   0.424  0.00  0.00    +0.000 C 
ATOM      4  C   UNL     1      -1.758  -0.824  -0.248  0.00  0.00    +0.000 C 
ATOM      5  C   UNL     1      -0.562  -1.720  -0.954  0.00  0.00    +0.000 C 
ATOM      6  N   UNL     1      -0.022  -0.694  -1.991  0.00  0.00    +0.000 NA
ATOM      7  C   UNL     1       0.625  -1.653   0.181  0.00  0.00    +0.000 C 
ENDROOT
BRANCH   4   8
ATOM      8  N   UNL     1      -1.924  -1.581   1.081  0.00  0.00    +0.000 NA
ATOM      9  C   UNL     1      -2.608  -2.839   1.011  0.00  0.00    +0.000 C 
ATOM     10  C   UNL     1      -2.834  -3.667   2.232  0.00  0.00    +0.000 C 
ATOM     11  O   UNL     1      -3.010  -3.215  -0.124  0.00  0.00    +0.000 OA
ENDBRANCH   4   8
BRANCH   1  12
ATOM     12  C   UNL     1       2.595  -0.167  -0.015  0.00  0.00    +0.000 C 
ATOM     13  O   UNL     1       3.060   1.000  -0.064  0.00  0.00    +0.000 OA
BRANCH  12  14
ATOM     14  O   UNL     1       3.489  -1.203  -0.122  0.00  0.00    +0.000 OA
BRANCH  14  16
ATOM     15  C   UNL     1       5.341  -0.159   0.919  0.00  0.00    +0.000 C 
ATOM     16  C   UNL     1       4.886  -0.954  -0.284  0.00  0.00    +0.000 C 
ENDBRANCH  14  16
ENDBRANCH  12  14
ENDBRANCH   1  12
BRANCH   3  17
ATOM     17  O   UNL     1      -1.423   1.396  -0.808  0.00  0.00    +0.000 OA
BRANCH  17  18
ATOM     18  C   UNL     1      -0.737   2.568  -0.523  0.00  0.00    +0.000 C 
BRANCH  18  19
ATOM     19  C   UNL     1      -1.264   3.257   0.702  0.00  0.00    +0.000 C 
ATOM     20  C   UNL     1      -1.139   2.364   1.895  0.00  0.00    +0.000 C 
ENDBRANCH  18  19
BRANCH  18  21
ATOM     21  C   UNL     1      -0.851   3.483  -1.692  0.00  0.00    +0.000 C 
ATOM     22  C   UNL     1      -2.296   3.836  -2.010  0.00  0.00    +0.000 C 
ENDBRANCH  18  21
ENDBRANCH  17  18
ENDBRANCH   3  17
TORSDOF 8
