REMARK  Name = 
REMARK  2 active torsions:
REMARK  status: ('A' for Active; 'I' for Inactive)
REMARK    1  A    between atoms: N_4  and  C_5
REMARK    2  A    between atoms: C_8  and  C_9
REMARK                            x       y       z     vdW  Elec       q    Type
REMARK                         _______ _______ _______ _____ _____    ______ ____
ROOT
ATOM      1  C   UNL     1      -2.795   2.458   0.251  0.00  0.00    +0.000 C 
ATOM      2  C   UNL     1      -2.181   1.105   0.149  0.00  0.00    +0.000 A 
ATOM      3  C   UNL     1      -0.861   0.876   0.547  0.00  0.00    +0.000 A 
ATOM      4  N   UNL     1      -0.376  -0.351   0.430  0.00  0.00    +0.000 N 
ATOM      5  C   UNL     1      -1.060  -1.354  -0.034  0.00  0.00    +0.000 A 
ATOM      6  O   UNL     1      -0.584  -2.503  -0.136  0.00  0.00    +0.000 OA
ATOM      7  N   UNL     1      -2.344  -1.149  -0.425  0.00  0.00    +0.000 NA
ATOM      8  C   UNL     1      -2.927   0.061  -0.345  0.00  0.00    +0.000 A 
ATOM      9  O   UNL     1      -4.115   0.169  -0.726  0.00  0.00    +0.000 OA
ENDROOT
BRANCH   4  10
ATOM     10  C   UNL     1       1.103  -0.574   0.901  0.00  0.00    +0.000 C 
ATOM     11  C   UNL     1       1.499  -1.531  -0.373  0.00  0.00    +0.000 C 
ATOM     12  C   UNL     1       2.682  -1.155  -0.701  0.00  0.00    +0.000 C 
ATOM     13  C   UNL     1       3.053   0.036   0.351  0.00  0.00    +0.000 C 
ATOM     14  O   UNL     1       1.655   0.664   0.168  0.00  0.00    +0.000 OA
BRANCH  13  15
ATOM     15  C   UNL     1       3.727   0.979  -0.856  0.00  0.00    +0.000 C 
ATOM     16  O   UNL     1       3.524   2.268  -0.404  0.00  0.00    +0.000 OA
ENDBRANCH  13  15
ENDBRANCH   4  10
TORSDOF 2
