REMARK  Name = 
REMARK  12 active torsions:
REMARK  status: ('A' for Active; 'I' for Inactive)
REMARK    1  A    between atoms: C_2  and  N_5
REMARK    2  A    between atoms: C_6  and  C_8
REMARK    3  A    between atoms: N_10  and  C_11
REMARK    4  A    between atoms: C_11  and  C_12
REMARK    5  A    between atoms: N_20  and  C_21
REMARK    6  A    between atoms: C_21  and  C_22
REMARK    7  A    between atoms: C_22  and  C_24
REMARK    8  A    between atoms: C_24  and  C_25
REMARK    9  A    between atoms: C_25  and  C_26
REMARK   10  A    between atoms: C_25  and  C_33
REMARK   11  A    between atoms: C_26  and  C_27
REMARK   12  A    between atoms: N_35  and  C_36
REMARK                            x       y       z     vdW  Elec       q    Type
REMARK                         _______ _______ _______ _____ _____    ______ ____
ROOT
ATOM      1  C   UNL     1       0.351  -1.701   1.317  0.00  0.00    +0.000 C 
ATOM      2  O   UNL     1      -0.624  -2.831   1.050  0.00  0.00    +0.000 OA
ENDROOT
BRANCH   1   3
ATOM      3  C   UNL     1      -0.822  -0.593   1.590  0.00  0.00    +0.000 C 
BRANCH   3   9
ATOM      4  C   UNL     1      -2.689   0.579   0.622  0.00  0.00    +0.000 C 
ATOM      5  C   UNL     1      -3.153  -0.077   2.075  0.00  0.00    +0.000 C 
ATOM      6  N   UNL     1      -4.269  -0.851   1.583  0.00  0.00    +0.000 NA
ATOM      7  C   UNL     1      -3.823  -1.560   0.409  0.00  0.00    +0.000 C 
ATOM      8  C   UNL     1      -2.369  -1.747   0.262  0.00  0.00    +0.000 C 
ATOM      9  N   UNL     1      -1.597  -0.502   0.424  0.00  0.00    +0.000 NA
BRANCH   4  11
ATOM     10  N   UNL     1      -2.513   3.000   1.473  0.00  0.00    +0.000 NA
ATOM     11  C   UNL     1      -1.875   1.773   1.231  0.00  0.00    +0.000 C 
ATOM     12  O   UNL     1      -0.696   1.621   1.486  0.00  0.00    +0.000 OA
BRANCH  10  14
ATOM     13  C   UNL     1      -3.028   5.254   2.066  0.00  0.00    +0.000 C 
ATOM     14  C   UNL     1      -1.927   4.185   2.018  0.00  0.00    +0.000 C 
ATOM     15  C   UNL     1      -0.786   4.750   1.214  0.00  0.00    +0.000 C 
ATOM     16  C   UNL     1      -1.454   4.016   3.442  0.00  0.00    +0.000 C 
ENDBRANCH  10  14
ENDBRANCH   4  11
BRANCH   6  17
ATOM     17  C   UNL     1      -5.271   0.134   1.129  0.00  0.00    +0.000 C 
BRANCH  17  18
ATOM     18  C   UNL     1      -6.482  -0.538   0.601  0.00  0.00    +0.000 A 
ATOM     19  C   UNL     1      -6.595  -0.918  -0.743  0.00  0.00    +0.000 A 
ATOM     20  C   UNL     1      -7.731  -1.538  -1.211  0.00  0.00    +0.000 A 
ATOM     21  C   UNL     1      -8.751  -1.774  -0.330  0.00  0.00    +0.000 A 
ATOM     22  N   UNL     1      -8.678  -1.428   0.946  0.00  0.00    +0.000 NA
ATOM     23  C   UNL     1      -7.575  -0.828   1.394  0.00  0.00    +0.000 A 
ENDBRANCH  17  18
ENDBRANCH   6  17
ENDBRANCH   3   9
ENDBRANCH   1   3
BRANCH   1  24
ATOM     24  C   UNL     1       0.623  -1.257  -0.248  0.00  0.00    +0.000 C 
BRANCH  24  25
ATOM     25  C   UNL     1       1.801  -2.305  -0.669  0.00  0.00    +0.000 C 
BRANCH  25  26
ATOM     26  C   UNL     1       3.062  -1.480  -0.150  0.00  0.00    +0.000 C 
ATOM     27  O   UNL     1       3.724  -2.219   0.590  0.00  0.00    +0.000 OA
ATOM     28  N   UNL     1       3.376  -0.214  -0.446  0.00  0.00    +0.000 NA
BRANCH  28  29
ATOM     29  C   UNL     1       4.701   0.166   0.274  0.00  0.00    +0.000 C 
ATOM     30  C   UNL     1       4.897   1.559  -0.465  0.00  0.00    +0.000 A 
ATOM     31  C   UNL     1       5.910   1.957  -1.290  0.00  0.00    +0.000 A 
ATOM     32  C   UNL     1       5.903   3.264  -1.816  0.00  0.00    +0.000 A 
ATOM     33  C   UNL     1       4.872   4.114  -1.485  0.00  0.00    +0.000 A 
ATOM     34  C   UNL     1       3.883   3.664  -0.654  0.00  0.00    +0.000 A 
ATOM     35  C   UNL     1       3.896   2.363  -0.135  0.00  0.00    +0.000 A 
ATOM     36  C   UNL     1       2.897   1.753   0.727  0.00  0.00    +0.000 C 
ATOM     37  C   UNL     1       3.994   0.988   1.652  0.00  0.00    +0.000 C 
ATOM     38  O   UNL     1       3.087  -0.149   2.030  0.00  0.00    +0.000 OA
ENDBRANCH  28  29
ENDBRANCH  25  26
BRANCH  25  39
ATOM     39  C   UNL     1       1.891  -1.693  -2.213  0.00  0.00    +0.000 C 
BRANCH  39  40
ATOM     40  C   UNL     1       2.926  -2.468  -2.904  0.00  0.00    +0.000 A 
ATOM     41  C   UNL     1       2.711  -3.628  -3.612  0.00  0.00    +0.000 A 
ATOM     42  C   UNL     1       3.724  -4.309  -4.243  0.00  0.00    +0.000 A 
ATOM     43  C   UNL     1       5.012  -3.838  -4.185  0.00  0.00    +0.000 A 
ATOM     44  C   UNL     1       5.247  -2.677  -3.480  0.00  0.00    +0.000 A 
ATOM     45  C   UNL     1       4.220  -2.016  -2.859  0.00  0.00    +0.000 A 
ENDBRANCH  39  40
ENDBRANCH  25  39
ENDBRANCH  24  25
ENDBRANCH   1  24
TORSDOF 12
